api/pglib_opf_case4917_goc__api.m
%%%%%%%%%%%%%%%%%%%%%%%%%%%%%%%%%%%%%%%%%%%%%%%%%%%%%%%%%%%%%%%%%%%%%%%%%%%
%%%%                                                                  %%%%%
%%%%    IEEE PES Power Grid Library - Optimal Power Flow - v23.07     %%%%%
%%%%          (https://github.com/power-grid-lib/pglib-opf)           %%%%%
%%%%             Benchmark Group - Active Power Increase              %%%%%
%%%%                         23 - July - 2023                         %%%%%
%%%%                                                                  %%%%%
%%%%%%%%%%%%%%%%%%%%%%%%%%%%%%%%%%%%%%%%%%%%%%%%%%%%%%%%%%%%%%%%%%%%%%%%%%%
function mpc = pglib_opf_case4917_goc__api
mpc.version = '2';
mpc.baseMVA = 100.0;

%% bus data
%	bus_i	type	Pd	Qd	Gs	Bs	area	Vm	Va	baseKV	zone	Vmax	Vmin
mpc.bus = [
	1	 1	 8.25	 -0.23	 0.0	 0.0	 1	    0.99750	    0.00000	 13.0	 1	    1.05000	    0.94500;
	2	 1	 0.0	 0.0	 0.0	 0.0	 1	    0.99750	    0.00000	 13.0	 1	    1.05000	    0.94500;
	3	 1	 0.23	 0.50	 0.0	 0.0	 1	    0.99750	    0.00000	 69.0	 1	    1.05000	    0.94500;
	4	 1	 7.96	 -0.35	 0.0	 0.0	 1	    0.99750	    0.00000	 13.0	 1	    1.05000	    0.94500;
	5	 1	 0.0	 0.0	 0.0	 0.0	 1	    0.99750	    0.00000	 13.0	 1	    1.05000	    0.94500;
	6	 2	 3.28	 3.40	 0.0	 0.0	 1	    0.99750	    0.00000	 69.0	 1	    1.05000	    0.94500;
	7	 1	 7.83	 0.42	 0.0	 0.0	 1	    0.99750	    0.00000	 13.0	 1	    1.05000	    0.94500;
	8	 1	 3.52	 0.49	 0.0	 0.0	 1	    0.99750	    0.00000	 13.0	 1	    1.05000	    0.94500;
	9	 2	 0.0	 0.0	 0.0	 0.0	 1	    0.99750	    0.00000	 69.0	 1	    1.05000	    0.94500;
	10	 1	 2.44	 1.26	 0.0	 0.0	 1	    0.99750	    0.00000	 69.0	 1	    1.05000	    0.94500;
	11	 1	 4.72	 0.73	 0.0	 0.0	 1	    0.99750	    0.00000	 69.0	 1	    1.05000	    0.94500;
	12	 1	 0.0	 0.0	 0.0	 0.0	 1	    0.99750	    0.00000	 69.0	 1	    1.05000	    0.94500;
	13	 1	 0.0	 0.0	 0.0	 0.0	 1	    0.99750	    0.00000	 69.0	 1	    1.05000	    0.94500;
	14	 1	 0.0	 0.0	 0.0	 0.0	 1	    0.99750	    0.00000	 69.0	 1	    1.05000	    0.94500;
	15	 1	 0.0	 0.0	 0.0	 0.0	 1	    0.99750	    0.00000	 69.0	 1	    1.05000	    0.94500;
	16	 2	 0.0	 0.0	 0.0	 0.0	 1	    0.99750	    0.00000	 69.0	 1	    1.05000	    0.94500;
	17	 1	 12.39	 -1.43	 0.0	 0.0	 1	    0.99750	    0.00000	 69.0	 1	    1.05000	    0.94500;
	18	 1	 0.0	 0.0	 0.0	 0.0	 1	    0.99750	    0.00000	 69.0	 1	    1.05000	    0.94500;
	19	 1	 0.0	 0.0	 0.0	 0.0	 1	    0.99750	    0.00000	 69.0	 1	    1.05000	    0.94500;
	20	 1	 8.35	 0.94	 0.0	 0.0	 1	    0.99750	    0.00000	 13.0	 1	    1.05000	    0.94500;
	21	 1	 12.29	 0.40	 0.0	 0.0	 1	    0.99750	    0.00000	 13.0	 1	    1.05000	    0.94500;
	22	 1	 5.22	 0.45	 0.0	 0.0	 1	    0.99750	    0.00000	 13.0	 1	    1.05000	    0.94500;
	23	 1	 0.94	 5.28	 0.0	 6.08	 1	    0.99750	    0.00000	 69.0	 1	    1.05000	    0.94500;
	24	 1	 1.45	 0.89	 0.0	 0.0	 1	    0.99750	    0.00000	 13.0	 1	    1.05000	    0.94500;
	25	 1	 19.22	 -2.48	 0.0	 10.7994369548	 1	    0.99750	    0.00000	 69.0	 1	    1.05000	    0.94500;
	26	 2	 0.0	 0.0	 0.0	 0.0	 1	    0.99750	    0.00000	 69.0	 1	    1.05000	    0.94500;
	27	 1	 11.44	 0.16	 0.0	 0.0	 1	    0.99750	    0.00000	 13.0	 1	    1.05000	    0.94500;
	28	 1	 0.0	 0.0	 0.0	 0.0115112286574	 1	    0.99750	    0.00000	 230.0	 2	    1.05000	    0.94500;
	29	 1	 0.0	 0.0	 0.0	 0.0	 1	    0.99750	    0.00000	 1.0	 2	    1.05000	    0.94500;
	30	 1	 0.0	 0.0	 0.0	 2.58856290847	 1	    0.99750	    0.00000	 115.0	 2	    1.05000	    0.94500;
	31	 1	 -84.54	 19.64	 0.0	 0.0154304188359	 1	    0.99750	    0.00000	 115.0	 2	    1.05000	    0.94500;
	32	 1	 140.10	 51.23	 0.0	 1.9499780274	 1	    0.99750	    0.00000	 115.0	 2	    1.05000	    0.94500;
	33	 1	 0.0	 0.0	 0.0	 0.0	 1	    0.99750	    0.00000	 230.0	 2	    1.05000	    0.94500;
	34	 1	 -141.61	 -0.71	 0.0	 -4.8161904231	 1	    0.99750	    0.00000	 115.0	 2	    1.05000	    0.94500;
	35	 1	 0.0	 0.0	 0.0	 0.00296345705944	 1	    0.99750	    0.00000	 115.0	 2	    1.05000	    0.94500;
	36	 1	 97.17	 -39.91	 0.0	 21.8998089014	 1	    0.99750	    0.00000	 115.0	 2	    1.05000	    0.94500;
	37	 1	 0.0	 0.0	 0.0	 -0.857770246841	 1	    0.99750	    0.00000	 115.0	 2	    1.05000	    0.94500;
	38	 1	 52.44	 5.19	 0.0	 0.0	 1	    0.99750	    0.00000	 115.0	 2	    1.05000	    0.94500;
	39	 1	 26.27	 2.42	 0.0	 2.673	 1	    0.99750	    0.00000	 230.0	 2	    1.05000	    0.94500;
	40	 1	 0.0	 0.0	 0.0	 33.2699471293	 1	    0.99750	    0.00000	 230.0	 2	    1.05000	    0.94500;
	41	 1	 388.33	 -19.05	 0.0	 0.0	 1	    0.99750	    0.00000	 345.0	 2	    1.05000	    0.94500;
	42	 1	 -84.55	 19.64	 0.0	 0.0154249539518	 1	    0.99750	    0.00000	 115.0	 2	    1.05000	    0.94500;
	43	 1	 152.94	 0.16	 0.0	 -17.596	 1	    0.99750	    0.00000	 230.0	 2	    1.05000	    0.94500;
	44	 1	 33.08	 6.80	 0.0	 0.0	 1	    0.99750	    0.00000	 230.0	 2	    1.05000	    0.94500;
	45	 1	 47.23	 2.68	 0.0	 0.0	 1	    0.99750	    0.00000	 230.0	 2	    1.05000	    0.94500;
	46	 2	 0.0	 0.0	 0.0	 0.0	 1	    0.99750	    0.00000	 500.0	 2	    1.05000	    0.94500;
	47	 1	 0.0	 0.0	 0.0	 0.0	 1	    0.99750	    0.00000	 1.0	 2	    1.05000	    0.94500;
	48	 2	 -85.21	 25.69	 0.0	 0.0	 1	    0.99750	    0.00000	 22.8	 2	    1.05000	    0.94500;
	49	 1	 0.0	 0.0	 0.0	 47.499852397	 1	    0.99750	    0.00000	 230.0	 2	    1.05000	    0.94500;
	50	 2	 0.0	 0.0	 0.0	 -109.984	 1	    0.99750	    0.00000	 345.0	 2	    1.05000	    0.94500;
	51	 1	 0.0	 0.0	 0.0	 -0.353698269531	 1	    0.99750	    0.00000	 138.0	 2	    1.05000	    0.94500;
	52	 1	 -95.88	 20.57	 0.0	 0.0	 1	    0.99750	    0.00000	 21.0	 2	    1.05000	    0.94500;
	53	 1	 96.94	 -19.25	 0.0	 3.52997945004	 1	    0.99750	    0.00000	 230.0	 2	    1.05000	    0.94500;
	54	 2	 134.93	 -36.27	 0.0	 0.0	 1	    0.99750	    0.00000	 115.0	 2	    1.05000	    0.94500;
	55	 1	 -193.30	 -6.23	 0.0	 -0.00429687080184	 1	    0.99750	    0.00000	 115.0	 2	    1.05000	    0.94500;
	56	 1	 0.0	 0.0	 0.0	 -3.98369073905	 1	    0.99750	    0.00000	 115.0	 2	    1.05000	    0.94500;
	57	 1	 100.94	 23.13	 0.0	 44.7657810229	 1	    0.99750	    0.00000	 161.0	 2	    1.05000	    0.94500;
	58	 1	 0.0	 0.0	 0.0	 -0.868921177249	 1	    0.99750	    0.00000	 230.0	 2	    1.05000	    0.94500;
	59	 2	 77.87	 15.26	 0.0	 0.0	 1	    0.99750	    0.00000	 161.0	 2	    1.05000	    0.94500;
	60	 1	 -43.83	 24.65	 0.0	 -0.00134789283948	 1	    0.99750	    0.00000	 115.0	 2	    1.05000	    0.94500;
	61	 1	 120.20	 72.65	 0.0	 117.171948383	 1	    0.99750	    0.00000	 115.0	 2	    1.05000	    0.94500;
	62	 1	 35.40	 4.79	 0.0	 0.0	 1	    0.99750	    0.00000	 230.0	 2	    1.05000	    0.94500;
	63	 1	 0.0	 0.0	 0.0	 -2.39870628637	 1	    0.99750	    0.00000	 138.0	 2	    1.05000	    0.94500;
	64	 1	 0.0	 0.0	 0.0	 -0.0158257362728	 1	    0.99750	    0.00000	 230.0	 2	    1.05000	    0.94500;
	65	 1	 0.0	 0.0	 0.0	 -0.00543947763116	 1	    0.99750	    0.00000	 230.0	 2	    1.05000	    0.94500;
	66	 1	 0.0	 0.0	 0.0	 16.9282887087	 1	    0.99750	    0.00000	 230.0	 2	    1.05000	    0.94500;
	67	 1	 0.0	 0.0	 0.0	 10.73167357	 1	    0.99750	    0.00000	 230.0	 2	    1.05000	    0.94500;
	68	 1	 0.0	 0.0	 0.0	 -0.0350512421951	 1	    0.99750	    0.00000	 161.0	 2	    1.05000	    0.94500;
	69	 2	 41.87	 5.28	 0.0	 -47.238	 1	    0.99750	    0.00000	 230.0	 2	    1.05000	    0.94500;
	70	 2	 0.0	 0.0	 0.0	 0.0	 1	    0.99750	    0.00000	 230.0	 2	    1.05000	    0.94500;
	71	 1	 -141.60	 -1.20	 0.0	 -5.30192331945	 1	    0.99750	    0.00000	 115.0	 2	    1.05000	    0.94500;
	72	 1	 0.0	 0.0	 0.0	 0.0	 1	    0.99750	    0.00000	 230.0	 2	    1.05000	    0.94500;
	73	 2	 0.0	 0.0	 0.0	 17.995	 1	    0.99750	    0.00000	 1.0	 2	    1.05000	    0.94500;
	74	 1	 136.47	 -31.26	 0.0	 12.4398188082	 1	    0.99750	    0.00000	 115.0	 2	    1.05000	    0.94500;
	75	 1	 0.0	 0.0	 0.0	 0.0	 1	    0.99750	    0.00000	 230.0	 2	    1.05000	    0.94500;
	76	 1	 38.70	 3.70	 0.0	 0.00280008871111	 1	    0.99750	    0.00000	 115.0	 2	    1.05000	    0.94500;
	77	 1	 21.41	 -4.73	 0.0	 6.63977873646	 1	    0.99750	    0.00000	 230.0	 2	    1.05000	    0.94500;
	78	 2	 0.0	 0.0	 0.0	 12.364	 1	    0.99750	    0.00000	 1.0	 2	    1.05000	    0.94500;
	79	 1	 26.76	 2.37	 0.0	 0.0	 1	    0.99750	    0.00000	 230.0	 2	    1.05000	    0.94500;
	80	 1	 0.0	 0.0	 0.0	 0.0	 1	    0.99750	    0.00000	 500.0	 2	    1.05000	    0.94500;
	81	 1	 235.70	 11.19	 0.0	 0.0	 1	    0.99750	    0.00000	 230.0	 2	    1.05000	    0.94500;
	82	 1	 29.62	 1.61	 0.0	 0.0	 1	    0.99750	    0.00000	 35.0	 3	    1.05000	    0.94500;
	83	 1	 2.14	 -2.06	 0.0	 0.0	 1	    0.99750	    0.00000	 115.0	 3	    1.05000	    0.94500;
	84	 1	 21.01	 0.05	 0.0	 0.0	 1	    0.99750	    0.00000	 35.0	 3	    1.05000	    0.94500;
	85	 1	 4.04	 2.69	 0.0	 0.0	 1	    0.99750	    0.00000	 115.0	 3	    1.05000	    0.94500;
	86	 1	 58.65	 37.12	 0.0	 0.0	 1	    0.99750	    0.00000	 4.0	 3	    1.05000	    0.94500;
	87	 1	 25.42	 0.75	 0.0	 0.0	 1	    0.99750	    0.00000	 35.0	 3	    1.05000	    0.94500;
	88	 1	 48.53	 2.10	 0.0	 0.0	 1	    0.99750	    0.00000	 22.0	 3	    1.05000	    0.94500;
	89	 2	 0.0	 0.0	 0.0	 0.0	 1	    0.99750	    0.00000	 13.0	 3	    1.05000	    0.94500;
	90	 2	 3.59	 0.13	 0.0	 -4.777	 1	    0.99750	    0.00000	 115.0	 3	    1.05000	    0.94500;
	91	 1	 0.0	 0.0	 0.0	 0.0	 1	    0.99750	    0.00000	 230.0	 3	    1.05000	    0.94500;
	92	 1	 0.0	 0.0	 0.0	 33.9989875512	 1	    0.99750	    0.00000	 115.0	 3	    1.05000	    0.94500;
	93	 1	 9.72	 -2.82	 0.0	 0.0	 1	    0.99750	    0.00000	 13.0	 3	    1.05000	    0.94500;
	94	 1	 0.0	 0.0	 0.0	 0.0	 1	    0.99750	    0.00000	 230.0	 3	    1.05000	    0.94500;
	95	 1	 30.23	 1.95	 0.0	 0.0	 1	    0.99750	    0.00000	 35.0	 3	    1.05000	    0.94500;
	96	 1	 0.0	 0.0	 0.0	 0.0	 1	    0.99750	    0.00000	 115.0	 3	    1.05000	    0.94500;
	97	 1	 0.0	 0.0	 0.0	 0.0	 1	    0.99750	    0.00000	 230.0	 3	    1.05000	    0.94500;
	98	 1	 0.0	 0.0	 0.0	 0.0	 1	    0.99750	    0.00000	 230.0	 3	    1.05000	    0.94500;
	99	 1	 17.27	 3.19	 0.0	 0.0	 1	    0.99750	    0.00000	 35.0	 3	    1.05000	    0.94500;
	100	 1	 14.30	 -0.43	 0.0	 0.0	 1	    0.99750	    0.00000	 35.0	 3	    1.05000	    0.94500;
	101	 1	 1.42	 -0.05	 0.0	 0.0	 1	    0.99750	    0.00000	 115.0	 3	    1.05000	    0.94500;
	102	 1	 0.0	 0.0	 0.0	 0.0	 1	    0.99750	    0.00000	 20.0	 3	    1.05000	    0.94500;
	103	 1	 10.12	 2.17	 0.0	 0.0	 1	    0.99750	    0.00000	 35.0	 3	    1.05000	    0.94500;
	104	 1	 8.88	 -3.32	 0.0	 0.0	 1	    0.99750	    0.00000	 35.0	 3	    1.05000	    0.94500;
	105	 1	 29.18	 -1.89	 0.0	 0.0	 1	    0.99750	    0.00000	 35.0	 3	    1.05000	    0.94500;
	106	 1	 14.81	 1.48	 0.0	 0.0	 1	    0.99750	    0.00000	 35.0	 3	    1.05000	    0.94500;
	107	 1	 0.0	 0.0	 0.0	 0.0	 1	    0.99750	    0.00000	 115.0	 3	    1.05000	    0.94500;
	108	 1	 31.05	 4.45	 0.0	 0.0	 1	    0.99750	    0.00000	 35.0	 3	    1.05000	    0.94500;
	109	 1	 22.63	 4.85	 0.0	 0.0	 1	    0.99750	    0.00000	 230.0	 3	    1.05000	    0.94500;
	110	 1	 49.86	 19.14	 0.0	 0.0	 1	    0.99750	    0.00000	 115.0	 3	    1.05000	    0.94500;
	111	 1	 0.0	 0.0	 0.0	 0.0	 1	    0.99750	    0.00000	 500.0	 3	    1.05000	    0.94500;
	112	 1	 37.79	 0.23	 0.0	 0.0	 1	    0.99750	    0.00000	 35.0	 3	    1.05000	    0.94500;
	113	 1	 -1.34	 -0.61	 0.0	 0.0	 1	    0.99750	    0.00000	 7.0	 3	    1.05000	    0.94500;
	114	 1	 11.09	 4.78	 0.0	 0.0	 1	    0.99750	    0.00000	 13.0	 3	    1.05000	    0.94500;
	115	 1	 0.0	 0.0	 0.0	 0.0	 1	    0.99750	    0.00000	 115.0	 3	    1.05000	    0.94500;
	116	 1	 9.39	 -0.84	 0.0	 0.0	 1	    0.99750	    0.00000	 13.0	 3	    1.05000	    0.94500;
	117	 1	 2.96	 4.83	 0.0	 0.0	 1	    0.99750	    0.00000	 13.0	 3	    1.05000	    0.94500;
	118	 1	 0.0	 0.0	 0.0	 0.0	 1	    0.99750	    0.00000	 500.0	 3	    1.05000	    0.94500;
	119	 1	 0.0	 0.0	 0.0	 0.0	 1	    0.99750	    0.00000	 115.0	 3	    1.05000	    0.94500;
	120	 1	 4.31	 1.69	 0.0	 0.0	 1	    0.99750	    0.00000	 4.0	 3	    1.05000	    0.94500;
	121	 1	 0.0	 0.0	 0.0	 0.0	 1	    0.99750	    0.00000	 230.0	 3	    1.05000	    0.94500;
	122	 1	 52.38	 33.83	 0.0	 0.0	 1	    0.99750	    0.00000	 22.0	 3	    1.05000	    0.94500;
	123	 1	 15.06	 -2.13	 0.0	 0.0	 1	    0.99750	    0.00000	 13.0	 3	    1.05000	    0.94500;
	124	 1	 0.0	 0.0	 0.0	 0.0	 1	    0.99750	    0.00000	 230.0	 3	    1.05000	    0.94500;
	125	 1	 0.0	 0.0	 0.0	 24.3999520148	 1	    0.99750	    0.00000	 115.0	 3	    1.05000	    0.94500;
	126	 1	 19.63	 26.54	 0.0	 0.0	 1	    0.99750	    0.00000	 115.0	 3	    1.05000	    0.94500;
	127	 1	 12.16	 0.13	 0.0	 0.0	 1	    0.99750	    0.00000	 13.0	 3	    1.05000	    0.94500;
	128	 1	 0.0	 0.0	 0.0	 0.0	 1	    0.99750	    0.00000	 14.0	 3	    1.05000	    0.94500;
	129	 2	 7.80	 3.38	 0.0	 -8.836	 1	    0.99750	    0.00000	 115.0	 3	    1.05000	    0.94500;
	130	 1	 755.75	 75.91	 0.0	 0.0	 1	    0.99750	    0.00000	 500.0	 3	    1.05000	    0.94500;
	131	 1	 63.65	 6.43	 0.0	 0.0	 1	    0.99750	    0.00000	 22.0	 3	    1.05000	    0.94500;
	132	 1	 0.0	 0.0	 0.0	 0.0	 1	    0.99750	    0.00000	 230.0	 3	    1.05000	    0.94500;
	133	 1	 15.56	 0.70	 0.0	 0.0	 1	    0.99750	    0.00000	 22.0	 3	    1.05000	    0.94500;
	134	 1	 0.0	 0.0	 0.0	 0.0	 1	    0.99750	    0.00000	 115.0	 3	    1.05000	    0.94500;
	135	 1	 9.12	 -0.83	 0.0	 0.0	 1	    0.99750	    0.00000	 35.0	 3	    1.05000	    0.94500;
	136	 1	 0.0	 0.0	 0.0	 0.0	 1	    0.99750	    0.00000	 230.0	 3	    1.05000	    0.94500;
	137	 1	 0.0	 0.0	 0.0	 0.0	 1	    0.99750	    0.00000	 14.0	 3	    1.05000	    0.94500;
	138	 1	 7.89	 -3.77	 0.0	 0.0	 1	    0.99750	    0.00000	 13.0	 3	    1.05000	    0.94500;
	139	 1	 16.56	 -0.29	 0.0	 0.0	 1	    0.99750	    0.00000	 35.0	 3	    1.05000	    0.94500;
	140	 1	 0.0	 0.0	 0.0	 0.0	 1	    0.99750	    0.00000	 20.0	 3	    1.05000	    0.94500;
	141	 1	 0.0	 0.0	 0.0	 0.0	 1	    0.99750	    0.00000	 230.0	 3	    1.05000	    0.94500;
	142	 1	 0.0	 0.0	 0.0	 0.0	 1	    0.99750	    0.00000	 230.0	 3	    1.05000	    0.94500;
	143	 1	 15.19	 8.18	 0.0	 0.0	 1	    0.99750	    0.00000	 4.0	 3	    1.05000	    0.94500;
	144	 1	 8.19	 0.59	 0.0	 0.0	 1	    0.99750	    0.00000	 35.0	 3	    1.05000	    0.94500;
	145	 1	 0.0	 0.0	 0.0	 0.0	 1	    0.99750	    0.00000	 14.0	 3	    1.05000	    0.94500;
	146	 2	 0.0	 0.0	 0.0	 -76.414	 1	    0.99750	    0.00000	 500.0	 3	    1.05000	    0.94500;
	147	 1	 0.0	 0.0	 0.0	 0.0	 1	    0.99750	    0.00000	 230.0	 3	    1.05000	    0.94500;
	148	 1	 0.0	 0.0	 0.0	 0.0	 1	    0.99750	    0.00000	 230.0	 3	    1.05000	    0.94500;
	149	 1	 13.30	 1.72	 0.0	 0.0	 1	    0.99750	    0.00000	 13.0	 3	    1.05000	    0.94500;
	150	 1	 0.0	 0.0	 0.0	 5.02090361698	 1	    0.99750	    0.00000	 115.0	 3	    1.05000	    0.94500;
	151	 1	 0.0	 0.0	 0.0	 0.0	 1	    0.99750	    0.00000	 230.0	 3	    1.05000	    0.94500;
	152	 1	 0.0	 0.0	 0.0	 0.0	 1	    0.99750	    0.00000	 230.0	 3	    1.05000	    0.94500;
	153	 1	 16.98	 -3.33	 0.0	 0.0	 1	    0.99750	    0.00000	 35.0	 3	    1.05000	    0.94500;
	154	 1	 26.37	 0.36	 0.0	 0.0	 1	    0.99750	    0.00000	 35.0	 3	    1.05000	    0.94500;
	155	 1	 0.0	 0.0	 0.0	 0.0	 1	    0.99750	    0.00000	 230.0	 3	    1.05000	    0.94500;
	156	 1	 0.0	 0.0	 0.0	 0.0	 1	    0.99750	    0.00000	 500.0	 3	    1.05000	    0.94500;
	157	 1	 3.98	 -2.08	 0.0	 0.0	 1	    0.99750	    0.00000	 35.0	 3	    1.05000	    0.94500;
	158	 1	 16.80	 1.46	 0.0	 0.0	 1	    0.99750	    0.00000	 35.0	 3	    1.05000	    0.94500;
	159	 1	 4.81	 2.18	 0.0	 0.0	 1	    0.99750	    0.00000	 36.5	 3	    1.05000	    0.94500;
	160	 1	 13.85	 1.66	 0.0	 0.0	 1	    0.99750	    0.00000	 34.5	 3	    1.05000	    0.94500;
	161	 1	 18.18	 2.96	 0.0	 0.0	 1	    0.99750	    0.00000	 35.0	 3	    1.05000	    0.94500;
	162	 1	 10.79	 1.04	 0.0	 0.0	 1	    0.99750	    0.00000	 13.0	 3	    1.05000	    0.94500;
	163	 2	 30.62	 54.44	 0.0	 0.0	 1	    0.99750	    0.00000	 13.0	 3	    1.05000	    0.94500;
	164	 1	 0.0	 0.0	 0.0	 0.0	 1	    0.99750	    0.00000	 115.0	 3	    1.05000	    0.94500;
	165	 1	 0.0	 0.0	 0.0	 0.0	 1	    0.99750	    0.00000	 500.0	 3	    1.05000	    0.94500;
	166	 1	 0.0	 0.0	 0.0	 0.0	 1	    0.99750	    0.00000	 500.0	 3	    1.05000	    0.94500;
	167	 1	 0.0	 0.0	 0.0	 0.0	 1	    0.99750	    0.00000	 230.0	 3	    1.05000	    0.94500;
	168	 1	 0.0	 0.0	 0.0	 0.0	 1	    0.99750	    0.00000	 230.0	 3	    1.05000	    0.94500;
	169	 1	 29.65	 -0.86	 0.0	 0.0	 1	    0.99750	    0.00000	 35.0	 3	    1.05000	    0.94500;
	170	 1	 15.59	 -6.31	 0.0	 0.0	 1	    0.99750	    0.00000	 230.0	 3	    1.05000	    0.94500;
	171	 1	 35.89	 7.83	 0.0	 0.0	 1	    0.99750	    0.00000	 35.0	 3	    1.05000	    0.94500;
	172	 1	 0.0	 0.0	 0.0	 0.0	 1	    0.99750	    0.00000	 115.0	 3	    1.05000	    0.94500;
	173	 1	 0.0	 0.0	 0.0	 0.0	 1	    0.99750	    0.00000	 230.0	 3	    1.05000	    0.94500;
	174	 1	 17.98	 2.35	 0.0	 0.0	 1	    0.99750	    0.00000	 13.0	 3	    1.05000	    0.94500;
	175	 1	 0.0	 0.0	 0.0	 0.0	 1	    0.99750	    0.00000	 230.0	 3	    1.05000	    0.94500;
	176	 1	 14.11	 1.01	 0.0	 0.0	 1	    0.99750	    0.00000	 35.0	 3	    1.05000	    0.94500;
	177	 1	 0.0	 0.0	 0.0	 0.0	 1	    0.99750	    0.00000	 230.0	 3	    1.05000	    0.94500;
	178	 1	 11.18	 5.56	 0.0	 0.0	 1	    0.99750	    0.00000	 35.0	 3	    1.05000	    0.94500;
	179	 1	 12.78	 -0.36	 0.0	 0.0	 1	    0.99750	    0.00000	 35.0	 3	    1.05000	    0.94500;
	180	 1	 19.49	 -1.75	 0.0	 0.0	 1	    0.99750	    0.00000	 35.0	 3	    1.05000	    0.94500;
	181	 1	 0.0	 0.0	 0.0	 0.0	 1	    0.99750	    0.00000	 230.0	 3	    1.05000	    0.94500;
	182	 1	 0.0	 0.0	 0.0	 0.0	 1	    0.99750	    0.00000	 115.0	 3	    1.05000	    0.94500;
	183	 2	 136.76	 10.99	 0.0	 0.0	 1	    0.99750	    0.00000	 230.0	 3	    1.05000	    0.94500;
	184	 1	 0.0	 0.0	 0.0	 0.0	 1	    0.99750	    0.00000	 500.0	 3	    1.05000	    0.94500;
	185	 1	 0.0	 0.0	 0.0	 0.0	 1	    0.99750	    0.00000	 230.0	 3	    1.05000	    0.94500;
	186	 1	 17.71	 1.35	 0.0	 0.0	 1	    0.99750	    0.00000	 35.0	 3	    1.05000	    0.94500;
	187	 1	 0.0	 0.0	 0.0	 0.0	 1	    0.99750	    0.00000	 230.0	 3	    1.05000	    0.94500;
	188	 1	 0.0	 0.0	 0.0	 0.0	 1	    0.99750	    0.00000	 115.0	 3	    1.05000	    0.94500;
	189	 2	 65.05	 0.01	 0.0	 0.0	 1	    0.99750	    0.00000	 35.0	 3	    1.05000	    0.94500;
	190	 1	 5.36	 -2.52	 0.0	 0.0	 1	    0.99750	    0.00000	 13.0	 3	    1.05000	    0.94500;
	191	 1	 7.60	 -1.98	 0.0	 0.0	 1	    0.99750	    0.00000	 13.0	 3	    1.05000	    0.94500;
	192	 1	 5.86	 0.93	 0.0	 0.0	 1	    0.99750	    0.00000	 13.0	 3	    1.05000	    0.94500;
	193	 1	 0.0	 0.0	 0.0	 0.0	 1	    0.99750	    0.00000	 14.0	 3	    1.05000	    0.94500;
	194	 2	 0.0	 0.0	 0.0	 0.0	 1	    0.99750	    0.00000	 13.0	 3	    1.05000	    0.94500;
	195	 1	 11.22	 -1.32	 0.0	 0.0	 1	    0.99750	    0.00000	 35.0	 3	    1.05000	    0.94500;
	196	 1	 7.53	 3.83	 0.0	 0.0	 1	    0.99750	    0.00000	 13.0	 3	    1.05000	    0.94500;
	197	 1	 29.99	 1.28	 0.0	 0.0	 1	    0.99750	    0.00000	 35.0	 3	    1.05000	    0.94500;
	198	 1	 0.0	 0.0	 0.0	 0.0	 1	    0.99750	    0.00000	 115.0	 3	    1.05000	    0.94500;
	199	 1	 0.0	 0.0	 0.0	 0.0	 1	    0.99750	    0.00000	 115.0	 3	    1.05000	    0.94500;
	200	 1	 10.12	 0.09	 0.0	 0.00996251223203	 1	    0.99750	    0.00000	 13.2	 3	    1.05000	    0.94500;
...
];

%% generator data
%	bus	Pg	Qg	Qmax	Qmin	Vg	mBase	status	Pmax	Pmin
mpc.gen = [
	2	 0.0	 0.0	 21.136	 -21.136	 0.9975	 71.2	 0	 17	 42.75; % PEL
	5	 0.0	 0.0	 15.15	 -9.9	 0.9975	 30.11	 0	 16	 12.8975; % NG
	6	 34.21925	 0.0	 550.0	 -550.0	 0.9975	 100.0	 1	 61	 7.4385; % PEL
	9	 36.3855	 0.0	 550.0	 -550.0	 0.9975	 100.0	 1	 66	 6.771; % COW
	16	 50.5	 0.0	 550.0	 -550.0	 0.9975	 100.0	 1	 100	 1.0; % COW
	23	 0.0	 0.0	 40.0	 -40.0	 0.9975	 100.0	 0	 79	 1.0; % NG
	26	 16.06425	 0.0	 550.0	 -550.0	 0.9975	 100.0	 1	 31	 1.1285; % COW
	43	 0.0	 0.0	 9.607	 -9.607	 0.9975	 100.0	 0	 5	 1.0; % PEL
	46	 172.0	 0.0	 600.0	 -600.0	 0.9975	 2300.0	 1	 343	 1.0; % COW
	48	 39.0	 30.2505	 216.361	 -155.86	 0.9975	 100.0	 1	 77	 1.0; % PEL
	50	 177.5	 0.0	 177.0	 -177.0	 0.9975	 100.0	 1	 354	 1.0; % NG
	52	 0.0	 0.0	 139.885	 -115.13	 0.9975	 100.0	 0	 41	 11.241; % NG
	54	 210.63	 0.0	 550.0	 -550.0	 0.9975	 100.0	 1	 392	 29.26; % COW
	59	 102.0	 0.0	 500.0	 -500.0	 0.9975	 1600.0	 1	 203	 1.0; % COW
	69	 210.5	 0.0	 210.0	 -210.0	 0.9975	 100.0	 1	 420	 1.0; % NG
	70	 51.0	 0.0	 51.0	 -51.0	 0.9975	 100.0	 1	 101	 1.0; % PEL
	73	 139.5	 0.0	 139.0	 -139.0	 0.9975	 100.0	 1	 278	 1.0; % NG
	78	 80.5	 0.0	 80.0	 -80.0	 0.9975	 100.0	 1	 160	 1.0; % NG
	89	 222.03125	 0.0	 206.0	 -206.0	 0.9975	 804.0	 1	 412	 32.0625; % COW
	90	 148.0	 0.0	 148.0	 -148.0	 0.9975	 100.0	 1	 295	 1.0; % NG
	102	 0.0	 0.0	 61.104	 -61.104	 0.9975	 200.54	 0	 13	 85.5; % NG
	122	 0.0	 0.0	 291.77	 -195.238	 0.9975	 1200.0	 0	 340	 897.75; % COW
	128	 0.0	 0.0	 31.567	 -31.567	 0.9975	 104.0	 0	 14	 71.25; % NG
	129	 35.0	 0.0	 35.0	 -35.0	 0.9975	 100.0	 1	 69	 1.0; % PEL
	137	 0.0	 0.0	 297.0	 -297.0	 0.9975	 67.5	 0	 594	 8.1765; % COW
	137	 0.0	 0.0	 66.0	 -66.0	 0.9975	 67.5	 0	 132	 7.125; % NG
	140	 0.0	 0.0	 286.303	 -155.0	 0.9975	 848.0	 0	 309	 4.75; % COW
	145	 0.0	 0.0	 114.0	 -114.0	 0.9975	 234.0	 0	 228	 69.35; % NG
	146	 74.0	 0.0	 74.0	 -74.0	 0.9975	 100.0	 1	 147	 1.0; % NG
	163	 42.1045	 0.0	 63.6	 -63.6	 0.9975	 100.0	 1	 83	 1.209; % NG
	163	 0.0	 0.0	 101.0	 -101.0	 0.9975	 100.0	 0	 202	 7.5295; % COW
	183	 128.0	 0.0	 550.0	 -550.0	 0.9975	 100.0	 1	 216	 40.0; % NG
	189	 94.387	 0.0	 104.31	 -104.31	 0.9975	 100.0	 1	 187	 1.774; % NG
	193	 0.0	 0.0	 124.0	 -124.0	 0.9975	 104.0	 0	 247	 35.625; % NG
	194	 161.53125	 0.0	 146.0	 -146.0	 0.9975	 704.0	 1	 291	 32.0625; % COW
	218	 0.0	 0.0	 39.583	 -39.583	 0.9975	 160.0	 0	 51	 48.45; % COW
	218	 0.0	 0.0	 39.583	 -39.583	 0.9975	 160.0	 0	 0	 96.9; % NG
	218	 0.0	 0.0	 197.0	 -197.0	 0.9975	 160.0	 0	 394	 48.45; % COW
	219	 378.0	 0.0	 600.0	 -600.0	 0.9975	 2000.0	 1	 755	 1.0; % NG
	219	 378.0	 0.0	 600.0	 -600.0	 0.9975	 2000.0	 1	 755	 1.0; % NG
	223	 0.0	 0.0	 197.613	 -191.0	 0.9975	 1055.0	 0	 381	 15.88; % COW
	227	 164.53125	 0.0	 149.0	 -149.0	 0.9975	 704.0	 1	 297	 32.0625; % COW
	238	 768.175	 0.0	 544.0	 -544.0	 0.9975	 1200.0	 1	 1087	 449.35; % COW
	247	 0.0	 0.0	 17.31	 -10.61	 0.9975	 25.0	 0	 14	 7.559; % NG
	247	 0.0	 0.0	 226.0	 -226.0	 0.9975	 25.0	 0	 451	 7.8825; % COW
	247	 0.0	 0.0	 18.0	 -18.0	 0.9975	 25.0	 0	 36	 4.12; % NG
	263	 0.0	 0.0	 62.97	 -67.458	 0.9975	 198.9	 0	 20	 4.75; % NG
	267	 0.0	 0.0	 33.333	 -33.333	 0.9975	 100.0	 0	 45	 8.4705; % NG
	282	 14.5	 0.0	 166.4	 -166.4	 0.9975	 800.0	 1	 28	 1.0; % COW
	282	 25.7305	 0.0	 200.59	 -200.59	 0.9975	 800.0	 1	 44	 7.461; % COW
	289	 0.0	 0.0	 85.0	 -85.0	 0.9975	 100.0	 0	 169	 1.0; % COW
	298	 0.0	 0.0	 153.0	 -153.0	 0.9975	 226.0	 0	 305	 73.625; % NG
	328	 87.5	 0.0	 87.0	 -87.0	 0.9975	 100.0	 1	 174	 1.0; % PEL
	336	 87.875	 0.0	 86.0	 -86.0	 0.9975	 198.9	 1	 171	 4.75; % NG
	337	 0.0	 0.0	 201.0	 -201.0	 0.9975	 57.87	 0	 401	 5.7; % NG
	339	 141.206	 0.0	 137.0	 -137.0	 0.9975	 88.24	 1	 274	 8.412; % NG
	339	 0.0	 0.0	 126.0	 -126.0	 0.9975	 131.6	 0	 251	 8.1765; % COW
	339	 0.0	 0.0	 109.0	 -109.0	 0.9975	 131.6	 0	 218	 30.24; % NG
	340	 0.0	 0.0	 90.0	 -90.0	 0.9975	 100.0	 0	 179	 8.5; % COW
	340	 0.0	 0.0	 33.333	 -33.333	 0.9975	 100.0	 0	 4	 17.412; % NG
	340	 0.0	 0.0	 41.0	 -41.0	 0.9975	 100.0	 0	 81	 7.559; % NG
	346	 177.5	 0.0	 177.0	 -177.0	 0.9975	 100.0	 1	 354	 1.0; % COW
	351	 0.0	 0.0	 92.232	 -92.232	 0.9975	 100.0	 0	 102	 7.412; % NG
	370	 0.0	 0.0	 66.059	 -44.625	 0.9975	 181.5	 0	 0	 10.0; % NG
	371	 0.0	 0.0	 319.0	 -319.0	 0.9975	 384.0	 0	 638	 142.5; % COW
	387	 0.0	 0.0	 43.0	 -43.0	 0.9975	 100.0	 0	 85	 2.375; % PEL
	388	 174.08325	 0.0	 162.0	 -162.0	 0.9975	 82.78	 1	 323	 25.1665; % NG
	416	 0.0	 0.0	 19.0	 -19.0	 0.9975	 54.4	 0	 38	 1.1735; % NG
	419	 504.0	 0.0	 550.0	 -550.0	 0.9975	 100.0	 1	 968	 40.0; % COW
	424	 0.0	 0.0	 78.397	 -64.0	 0.9975	 82.78	 0	 127	 25.054; % COW
	426	 0.0	 0.0	 43.0	 -43.0	 0.9975	 100.0	 0	 85	 7.6175; % NG
	432	 0.0	 0.0	 157.0	 -157.0	 0.9975	 203.25	 0	 313	 25.27; % COW
	444	 319.2	 0.0	 317.0	 -317.0	 0.9975	 100.0	 1	 633	 5.4; % COW
	447	 170.5	 0.0	 170.0	 -170.0	 0.9975	 100.0	 1	 340	 1.0; % NG
	466	 180.89425	 0.0	 550.0	 -550.0	 0.9975	 100.0	 1	 358	 3.7885; % COW
	483	 0.0	 0.0	 63.025	 -63.025	 0.9975	 218.0	 0	 98	 42.75; % COW
	487	 0.0	 0.0	 37.471	 -37.471	 0.9975	 132.35	 0	 51	 16.625; % NG
	488	 0.0	 0.0	 33.333	 -33.333	 0.9975	 100.0	 0	 18	 8.2355; % NG
	489	 172.5	 0.0	 172.0	 -172.0	 0.9975	 100.0	 1	 344	 1.0; % PEL
	491	 0.0	 0.0	 45.0	 -45.0	 0.9975	 100.0	 0	 89	 7.588; % NG
	491	 0.0	 0.0	 36.0	 -36.0	 0.9975	 100.0	 0	 72	 7.941; % NG
	499	 0.0	 0.0	 105.513	 -105.513	 0.9975	 515.0	 0	 147	 90.25; % NG
	512	 691.0	 0.0	 671.0	 -671.0	 0.9975	 100.0	 1	 1342	 40.0; % NUC
	514	 67.5	 0.0	 67.0	 -67.0	 0.9975	 100.0	 1	 134	 1.0; % NG
	515	 220.53125	 0.0	 205.0	 -205.0	 0.9975	 804.0	 1	 409	 32.0625; % COW
	521	 0.0	 0.0	 120.0	 -120.0	 0.9975	 100.0	 0	 240	 2.075; % COW
	524	 0.0	 0.0	 67.22	 -44.587	 0.9975	 181.5	 0	 33	 96.9; % NG
	529	 0.0	 0.0	 62.641	 -62.641	 0.9975	 200.54	 0	 91	 42.75; % NG
	546	 0.0	 0.0	 270.0	 -270.0	 0.9975	 104.0	 0	 540	 35.625; % NG
	558	 105.5	 0.0	 105.0	 -105.0	 0.9975	 100.0	 1	 210	 1.0; % NG
	559	 377.5	 0.0	 377.0	 -377.0	 0.9975	 1055.0	 1	 754	 1.0; % NG
	562	 0.0	 0.0	 74.0	 -74.0	 0.9975	 67.5	 0	 147	 8.8235; % COW
	562	 0.0	 0.0	 17.103	 -17.103	 0.9975	 67.5	 0	 7	 26.13; % NG
	570	 44.0	 0.0	 67.2	 -67.2	 0.9975	 100.0	 1	 87	 1.0; % NG
	571	 0.0	 0.0	 98.454	 -98.454	 0.9975	 100.0	 0	 100	 2.4585; % NG
	575	 149.33825	 0.0	 146.0	 -146.0	 0.9975	 100.0	 1	 291	 7.6765; % NG
	588	 0.0	 0.0	 56.492	 -56.492	 0.9975	 234.0	 0	 48	 138.7; % COW
	610	 0.0	 0.0	 18.007	 -18.007	 0.9975	 100.0	 0	 14	 34.2; % PEL
	617	 0.0	 0.0	 59.951	 -59.951	 0.9975	 226.0	 0	 80	 73.625; % NG
	622	 0.0	 0.0	 58.1	 -98.088	 0.9975	 120.0	 0	 0	 15.765; % COW
	622	 126.294	 0.0	 122.0	 -122.0	 0.9975	 120.0	 1	 244	 8.588; % NG
	622	 126.85	 0.0	 126.0	 -126.0	 0.9975	 147.0	 1	 251	 2.7; % NG
	622	 0.0	 0.0	 123.0	 -123.0	 0.9975	 120.0	 0	 246	 7.8825; % COW
	622	 124.63	 0.0	 122.0	 -122.0	 0.9975	 120.0	 1	 244	 5.26; % NG
	622	 0.0	 0.0	 54.232	 -54.232	 0.9975	 147.0	 0	 8	 79.2; % NG
	635	 250.838	 0.0	 250.0	 -250.0	 0.9975	 119.2	 1	 500	 1.676; % NG
	635	 0.0	 0.0	 112.0	 -112.0	 0.9975	 119.2	 0	 224	 4.57; % COW
	635	 0.0	 0.0	 100.284	 -49.11	 0.9975	 119.2	 0	 22	 8.059; % NG
	635	 0.0	 0.0	 32.263	 -32.263	 0.9975	 115.0	 0	 63	 27.9335; % NG
	639	 52.35525	 0.0	 550.0	 -550.0	 0.9975	 100.0	 1	 98	 6.7105; % COW
	651	 99.5	 0.0	 99.0	 -99.0	 0.9975	 100.0	 1	 198	 1.0; % COW
	659	 0.0	 0.0	 22.5	 -22.5	 0.9975	 67.5	 0	 33	 8.706; % NG
	659	 0.0	 0.0	 22.099	 -22.099	 0.9975	 67.5	 0	 36	 11.875; % PEL
	665	 0.0	 0.0	 81.0	 -81.0	 0.9975	 100.0	 0	 162	 8.412; % COW
	665	 0.0	 0.0	 186.0	 -186.0	 0.9975	 100.0	 0	 371	 7.853; % NG
	666	 0.0	 0.0	 127.0	 -127.0	 0.9975	 104.0	 0	 254	 35.625; % NG
	674	 0.0	 0.0	 90.0	 -90.0	 0.9975	 100.0	 0	 179	 8.5; % COW
	684	 0.0	 0.0	 98.088	 -11.0	 0.9975	 100.0	 0	 22	 1.8335; % NG
	685	 92.862	 0.0	 550.0	 -550.0	 0.9975	 100.0	 1	 157	 28.724; % COW
	688	 0.0	 0.0	 162.0	 -162.0	 0.9975	 67.5	 0	 324	 7.4705; % COW
	688	 0.0	 0.0	 16.335	 -16.335	 0.9975	 67.5	 0	 18	 7.6; % PEL
	698	 237.88225	 0.0	 234.0	 -234.0	 0.9975	 100.0	 1	 467	 8.7645; % NG
	712	 249.125	 0.0	 204.0	 -204.0	 0.9975	 515.0	 1	 408	 90.25; % NG
	716	 126.375	 0.0	 124.0	 -124.0	 0.9975	 198.9	 1	 248	 4.75; % NG
	734	 92.75	 0.0	 88.0	 -88.0	 0.9975	 83.65	 1	 176	 9.5; % PEL
	735	 158.5	 0.0	 550.0	 -550.0	 0.9975	 100.0	 1	 277	 40.0; % COW
	736	 299.04975	 0.0	 550.0	 -550.0	 0.9975	 100.0	 1	 574	 24.0995; % COW
	742	 0.0	 0.0	 59.567	 -59.567	 0.9975	 226.0	 0	 17	 146.3; % NG
	750	 0.0	 0.0	 183.0	 -183.0	 0.9975	 444.44	 0	 365	 145.8; % COW
	762	 0.0	 0.0	 148.0	 -148.0	 0.9975	 980.0	 0	 295	 7.7645; % NG
	764	 0.0	 0.0	 94.428	 -94.428	 0.9975	 100.0	 0	 186	 7.588; % NG
	764	 61.0	 0.0	 61.0	 -61.0	 0.9975	 100.0	 1	 121	 1.0; % NG
	767	 0.0	 0.0	 216.58	 -140.8	 0.9975	 771.0	 0	 33	 342.0; % COW
	810	 0.0	 0.0	 32.281	 -32.281	 0.9975	 108.0	 0	 6	 42.75; % NG
	814	 734.5	 0.0	 715.0	 -715.0	 0.9975	 100.0	 1	 1429	 40.0; % NUC
	816	 0.0	 0.0	 33.05	 -33.05	 0.9975	 108.0	 0	 47	 21.375; % NG
	818	 0.0	 0.0	 42.273	 -42.273	 0.9975	 235.83	 0	 25	 99.75; % NG
	818	 0.0	 0.0	 194.0	 -194.0	 0.9975	 265.3	 0	 387	 8.4705; % NG
	818	 0.0	 0.0	 126.0	 -126.0	 0.9975	 176.87	 0	 251	 8.6765; % NG
	820	 0.0	 0.0	 32.281	 -32.281	 0.9975	 108.0	 0	 13	 42.75; % NG
	823	 196.01675	 0.0	 185.0	 -185.0	 0.9975	 235.83	 1	 369	 23.0335; % NG
	823	 0.0	 0.0	 26.0	 -26.0	 0.9975	 265.3	 0	 51	 6.9485; % NG
	823	 0.0	 0.0	 37.0	 -37.0	 0.9975	 176.87	 0	 73	 17.179; % NG
	824	 304.8835	 0.0	 550.0	 -550.0	 0.9975	 100.0	 1	 605	 4.767; % COW
	826	 0.0	 0.0	 48.0	 -48.0	 0.9975	 4.33	 0	 96	 8.706; % NG
	826	 0.0	 0.0	 3.0	 -3.0	 0.9975	 4.33	 0	 6	 1.71; % NG
	826	 0.0	 0.0	 34.0	 -34.0	 0.9975	 4.33	 0	 67	 7.7355; % NG
	827	 0.0	 0.0	 33.05	 -33.05	 0.9975	 108.0	 0	 32	 21.375; % NG
	829	 0.0	 0.0	 220.0	 -220.0	 0.9975	 491.41	 0	 440	 101.65; % NG
	829	 0.0	 0.0	 11.0	 -11.0	 0.9975	 33.7	 0	 21	 5.7; % PEL
	829	 0.0	 0.0	 204.0	 -204.0	 0.9975	 242.59	 0	 408	 36.1; % NG
	829	 0.0	 0.0	 223.0	 -223.0	 0.9975	 300.0	 0	 445	 2.85; % NG
	837	 384.5	 0.0	 384.0	 -384.0	 0.9975	 100.0	 1	 768	 1.0; % NG
	838	 173.25	 0.0	 131.0	 -131.0	 0.9975	 387.5	 1	 261	 85.5; % NG
	839	 0.0	 0.0	 47.0	 -47.0	 0.9975	 108.0	 0	 93	 21.375; % NG
	840	 0.0	 0.0	 100.0	 -100.0	 0.9975	 108.0	 0	 200	 21.375; % NG
	841	 0.0	 0.0	 102.992	 -102.992	 0.9975	 387.5	 0	 3	 171.0; % NG
	842	 0.0	 0.0	 56.0	 -56.0	 0.9975	 235.83	 0	 112	 38.125; % NG
	842	 0.0	 0.0	 46.619	 -46.619	 0.9975	 265.3	 0	 37	 84.917; % NG
	842	 0.0	 0.0	 574.0	 -574.0	 0.9975	 176.87	 0	 1148	 28.321; % NG
	850	 0.0	 0.0	 251.33	 -212.5	 0.9975	 636.62	 0	 235	 484.5; % COW
	853	 0.0	 0.0	 190.0	 -190.0	 0.9975	 235.83	 0	 380	 49.875; % COW
	853	 0.0	 0.0	 88.433	 -88.433	 0.9975	 265.3	 0	 143	 7.559; % NG
	853	 0.0	 0.0	 58.957	 -58.957	 0.9975	 176.87	 0	 30	 7.6765; % NG
	858	 407.0	 0.0	 407.0	 -407.0	 0.9975	 100.0	 1	 813	 1.0; % NG
	859	 0.0	 0.0	 36.0	 -36.0	 0.9975	 100.0	 0	 72	 7.6; % PEL
	862	 129.0	 0.0	 129.0	 -129.0	 0.9975	 100.0	 1	 257	 1.0; % PEL
	868	 391.5	 0.0	 550.0	 -550.0	 0.9975	 100.0	 1	 743	 40.0; % NG
	869	 194.5485	 0.0	 550.0	 -550.0	 0.9975	 100.0	 1	 376	 13.097; % COW
	871	 857.69525	 0.0	 696.0	 -696.0	 0.9975	 1020.0	 1	 1392	 323.3905; % NUC
	873	 0.0	 0.0	 112.0	 -112.0	 0.9975	 100.0	 0	 224	 15.675; % NG
	879	 0.0	 0.0	 33.333	 -33.333	 0.9975	 100.0	 0	 15	 74.1; % NG
	880	 132.5	 0.0	 153.6	 -153.6	 0.9975	 100.0	 1	 264	 1.0; % PEL
	882	 0.0	 0.0	 201.758	 -201.758	 0.9975	 732.0	 0	 38	 498.75; % COW
	883	 418.821	 0.0	 550.0	 -550.0	 0.9975	 100.0	 1	 822	 15.642; % COW
	884	 0.0	 0.0	 30.0	 -30.0	 0.9975	 100.0	 0	 60	 15.675; % NG
	886	 131.5	 0.0	 131.0	 -131.0	 0.9975	 100.0	 1	 262	 1.0; % NG
	888	 138.0	 0.0	 138.0	 -138.0	 0.9975	 100.0	 1	 275	 1.0; % NG
	890	 0.0	 0.0	 110.0	 -110.0	 0.9975	 100.0	 0	 220	 14.725; % NG
	892	 0.0	 0.0	 398.0	 -398.0	 0.9975	 214.0	 0	 796	 8.2355; % COW
	892	 0.0	 0.0	 65.0	 -65.0	 0.9975	 214.0	 0	 130	 40.375; % NG
	893	 0.0	 0.0	 71.333	 -71.333	 0.9975	 214.0	 0	 85	 8.206; % NG
	893	 0.0	 0.0	 64.562	 -64.562	 0.9975	 214.0	 0	 45	 44.65; % NG
	896	 474.78325	 0.0	 357.0	 -357.0	 0.9975	 732.0	 1	 713	 236.5665; % COW
	901	 0.0	 0.0	 33.333	 -33.333	 0.9975	 100.0	 0	 12	 57.0; % NG
	902	 0.0	 0.0	 220.937	 -49.5	 0.9975	 1012.0	 0	 41	 736.692; % COW
	905	 0.0	 0.0	 128.0	 -128.0	 0.9975	 100.0	 0	 255	 8.55; % COW
	908	 0.0	 0.0	 55.248	 -55.248	 0.9975	 250.0	 0	 64	 4.4395; % NG
	910	 0.0	 0.0	 26.0	 -26.0	 0.9975	 1.25	 0	 52	 8.294; % NG
	910	 128.0	 0.0	 128.0	 -128.0	 0.9975	 100.0	 1	 255	 1.0; % PEL
	913	 0.0	 0.0	 14.0	 -14.0	 0.9975	 25.98	 0	 28	 10.325; % COW
	914	 0.0	 0.0	 40.352	 -40.352	 0.9975	 128.0	 0	 79	 49.875; % NG
	917	 0.0	 0.0	 31.0	 -31.0	 0.9975	 100.0	 0	 61	 21.375; % PEL
	918	 0.0	 0.0	 31.183	 -31.183	 0.9975	 113.0	 0	 36	 35.1; % NG
	918	 0.0	 0.0	 29.968	 -29.968	 0.9975	 113.0	 0	 54	 33.44; % NG
	919	 51.1875	 0.0	 50.0	 -50.0	 0.9975	 43.45	 1	 100	 2.375; % NG
	924	 393.0635	 0.0	 391.0	 -391.0	 0.9975	 100.0	 1	 782	 4.127; % COW
	929	 0.0	 0.0	 72.0	 -72.0	 0.9975	 44.0	 0	 143	 2.375; % NG
	931	 0.0	 0.0	 21.136	 -21.136	 0.9975	 100.0	 0	 10	 42.75; % PEL
	931	 0.0	 0.0	 34.0	 -34.0	 0.9975	 100.0	 0	 67	 21.375; % NG
...
];

%% generator cost data
%	2	startup	shutdown	n	c(n-1)	...	c0
mpc.gencost = [
	2	 0.0	 0.0	 3	   0.503800	   0.000000	 2943.000000; % PEL
	2	 0.0	 0.0	 3	   0.040410	  40.200000	 1587.000000; % NG
	2	 0.0	 0.0	 3	   0.000000	   0.757900	 1399.000000; % PEL
	2	 0.0	 0.0	 3	   0.000000	   0.774200	 1065.000000; % COW
	2	 0.0	 0.0	 3	   0.000000	   0.515000	 167.800000; % COW
	2	 0.0	 0.0	 3	   0.000000	  36.250000	 114.400000; % NG
	2	 0.0	 0.0	 3	   0.000000	   0.515100	 224.300000; % COW
	2	 0.0	 0.0	 3	   0.000000	   9.992000	 101.600000; % PEL
	2	 0.0	 0.0	 3	   0.000000	  30.350000	 158.300000; % COW
	2	 0.0	 0.0	 3	   0.000000	  21.600000	 339.700000; % PEL
	2	 0.0	 0.0	 3	   0.000000	   0.884000	 100.700000; % NG
	2	 0.0	 0.0	 3	   0.000000	   1.458000	 1821.000000; % NG
	2	 0.0	 0.0	 3	   0.000000	   0.604600	 4689.000000; % COW
	2	 0.0	 0.0	 3	   0.000000	   0.361800	 204.200000; % COW
	2	 0.0	 0.0	 3	   0.000000	  14.510000	 168.700000; % NG
	2	 0.0	 0.0	 3	   0.000000	  21.150000	 150.000000; % PEL
	2	 0.0	 0.0	 3	   0.019400	  20.650000	 202.800000; % NG
	2	 0.0	 0.0	 3	   0.000000	  21.550000	 174.700000; % NG
	2	 0.0	 0.0	 3	   0.002088	   0.000000	 6741.000000; % COW
	2	 0.0	 0.0	 3	   0.000000	  22.850000	 139.300000; % NG
	2	 0.0	 0.0	 3	   0.050410	  34.580000	 4631.000000; % NG
	2	 0.0	 0.0	 3	   0.000000	   0.469100	 58420.000000; % COW
	2	 0.0	 0.0	 3	   0.705200	  80.320000	 -886.800000; % NG
	2	 0.0	 0.0	 3	   0.000000	   6.494000	 111.800000; % PEL
	2	 0.0	 0.0	 3	   0.000000	   1.665000	 1096.000000; % COW
	2	 0.0	 0.0	 3	   0.000000	   3.440000	 1379.000000; % NG
	2	 0.0	 0.0	 3	   0.000000	   0.369500	 657.000000; % COW
	2	 0.0	 0.0	 3	   0.353500	  29.230000	 3302.000000; % NG
	2	 0.0	 0.0	 3	   0.000000	  27.580000	 119.100000; % NG
	2	 0.0	 0.0	 3	   0.000000	  18.600000	 281.400000; % NG
	2	 0.0	 0.0	 3	   0.000000	   2.305000	 1047.000000; % COW
	2	 0.0	 0.0	 3	   0.000000	   0.541800	 6406.000000; % NG
	2	 0.0	 0.0	 3	   0.000000	   1.239000	 267.200000; % NG
	2	 0.0	 0.0	 3	   0.000000	 198.000000	 -6350.000000; % NG
	2	 0.0	 0.0	 3	   0.000000	   1.497000	 5066.000000; % COW
	2	 0.0	 0.0	 3	   0.765300	   3.521000	 1929.000000; % COW
	2	 0.0	 0.0	 3	   0.703600	  43.730000	 -4206.000000; % NG
	2	 0.0	 0.0	 3	   0.698900	  44.790000	 -1012.000000; % COW
	2	 0.0	 0.0	 3	   0.000000	  24.440000	 219.100000; % NG
	2	 0.0	 0.0	 3	   0.000000	  25.370000	 187.900000; % NG
	2	 0.0	 0.0	 3	   0.002184	   0.000000	 2607.000000; % COW
	2	 0.0	 0.0	 3	   0.000000	   2.775000	 7474.000000; % COW
	2	 0.0	 0.0	 3	   0.000000	   0.682200	 59720.000000; % COW
	2	 0.0	 0.0	 3	   0.000000	   1.293000	 908.900000; % NG
	2	 0.0	 0.0	 3	   0.000000	   1.007000	 1216.000000; % COW
	2	 0.0	 0.0	 3	   0.000000	   0.617300	 626.900000; % NG
	2	 0.0	 0.0	 3	   0.020530	  20.930000	 778.300000; % NG
	2	 0.0	 0.0	 3	   0.000000	   0.190600	 1127.000000; % NG
	2	 0.0	 0.0	 3	   0.000000	   7.399000	 231.200000; % COW
	2	 0.0	 0.0	 3	   0.001192	   6.528000	 1340.000000; % COW
	2	 0.0	 0.0	 3	   0.000000	  87.380000	 -18.290000; % COW
	2	 0.0	 0.0	 3	   0.320500	  25.420000	 4352.000000; % NG
	2	 0.0	 0.0	 3	   0.000000	   7.598000	 185.100000; % PEL
	2	 0.0	 0.0	 3	   0.021700	  30.510000	 685.200000; % NG
	2	 0.0	 0.0	 3	   0.000000	  24.000000	 783.800000; % NG
	2	 0.0	 0.0	 3	   0.000000	   0.178200	 1166.000000; % NG
	2	 0.0	 0.0	 3	   0.000000	   0.851000	 1263.000000; % COW
	2	 0.0	 0.0	 3	   0.116500	  58.080000	 2254.000000; % NG
	2	 0.0	 0.0	 3	   0.000000	   2.335000	 1261.000000; % COW
	2	 0.0	 0.0	 3	   0.000000	   2.487000	 1418.000000; % NG
	2	 0.0	 0.0	 3	   0.000000	   1.384000	 941.500000; % NG
	2	 0.0	 0.0	 3	   0.000000	   6.613000	  87.340000; % COW
	2	 0.0	 0.0	 3	   0.000000	  21.240000	 1339.000000; % NG
	2	 0.0	 0.0	 3	   0.015360	  23.330000	 708.600000; % NG
	2	 0.0	 0.0	 3	   0.000000	   0.787200	 25970.000000; % COW
	2	 0.0	 0.0	 3	   0.000000	  84.410000	 124.900000; % PEL
	2	 0.0	 0.0	 3	   0.014560	  16.480000	 4034.000000; % NG
	2	 0.0	 0.0	 3	   0.000000	   5.018000	  51.540000; % NG
	2	 0.0	 0.0	 3	   0.000000	   2.480000	 2468.000000; % COW
	2	 0.0	 0.0	 3	   0.016460	  25.270000	 3811.000000; % COW
	2	 0.0	 0.0	 3	   0.000000	   1.528000	 1077.000000; % NG
	2	 0.0	 0.0	 3	   0.028490	  32.590000	 3466.000000; % COW
	2	 0.0	 0.0	 3	   0.008243	  18.840000	 953.700000; % COW
	2	 0.0	 0.0	 3	   0.172800	  28.540000	 127.700000; % NG
	2	 0.0	 0.0	 3	   0.000000	   0.771900	 237.500000; % COW
	2	 0.0	 0.0	 3	   0.063730	  26.940000	 5588.000000; % COW
	2	 0.0	 0.0	 3	   0.000000	  68.610000	 1337.000000; % NG
	2	 0.0	 0.0	 3	   0.000000	   0.450300	 1124.000000; % NG
	2	 0.0	 0.0	 3	   0.000000	   6.847000	 144.800000; % PEL
	2	 0.0	 0.0	 3	   0.000000	   1.572000	 1053.000000; % NG
	2	 0.0	 0.0	 3	   0.000000	   1.170000	 1122.000000; % NG
	2	 0.0	 0.0	 3	   0.000000	   2.287000	 12670.000000; % NG
	2	 0.0	 0.0	 3	   0.000000	   0.165300	 4865.000000; % NUC
	2	 0.0	 0.0	 3	   0.000000	   6.613000	 122.900000; % NG
	2	 0.0	 0.0	 3	   0.000000	   0.401700	 3878.000000; % COW
	2	 0.0	 0.0	 3	   0.000000	   0.982500	 365.300000; % COW
	2	 0.0	 0.0	 3	   0.046980	  36.540000	 5908.000000; % NG
	2	 0.0	 0.0	 3	   0.049700	  38.460000	 5100.000000; % NG
	2	 0.0	 0.0	 3	   0.913900	  17.870000	 1046.000000; % NG
	2	 0.0	 0.0	 3	   0.377400	   9.421000	 122.400000; % NG
	2	 0.0	 0.0	 3	   0.000000	   4.837000	 154.700000; % NG
	2	 0.0	 0.0	 3	   0.000000	   1.916000	 1437.000000; % COW
	2	 0.0	 0.0	 3	   0.000000	  20.360000	 114.300000; % NG
	2	 0.0	 0.0	 3	   0.000000	  14.270000	 126.100000; % NG
	2	 0.0	 0.0	 3	   0.000000	   1.144000	 360.000000; % NG
	2	 0.0	 0.0	 3	   0.000000	   1.191000	 951.700000; % NG
	2	 0.0	 0.0	 3	   0.352500	  29.530000	 3278.000000; % COW
	2	 0.0	 0.0	 3	   0.000000	  49.740000	 1501.000000; % PEL
	2	 0.0	 0.0	 3	   0.318800	  26.000000	 4315.000000; % NG
	2	 0.0	 0.0	 3	   0.000000	   2.518000	 1145.000000; % COW
	2	 0.0	 0.0	 3	   0.000000	   2.521000	 1374.000000; % NG
	2	 0.0	 0.0	 3	   0.000000	   1.341000	 372.200000; % NG
	2	 0.0	 0.0	 3	   0.000000	   1.819000	 1099.000000; % COW
	2	 0.0	 0.0	 3	   0.000000	   0.868700	 698.000000; % NG
	2	 0.0	 0.0	 3	   0.068770	  39.460000	 3838.000000; % NG
	2	 0.0	 0.0	 3	   0.000000	   0.407200	 509.600000; % NG
	2	 0.0	 0.0	 3	   0.000000	   1.552000	 619.700000; % COW
	2	 0.0	 0.0	 3	   0.000000	   1.930000	 1026.000000; % NG
	2	 0.0	 0.0	 3	   0.289600	  81.480000	 -1617.000000; % NG
	2	 0.0	 0.0	 3	   0.000000	   0.502000	 1070.000000; % COW
	2	 0.0	 0.0	 3	   0.000000	  28.530000	 283.800000; % COW
	2	 0.0	 0.0	 3	   0.000000	   1.337000	 1255.000000; % NG
	2	 0.0	 0.0	 3	   0.000000	   7.095000	 731.800000; % PEL
	2	 0.0	 0.0	 3	   0.000000	   1.183000	 956.000000; % COW
	2	 0.0	 0.0	 3	   0.000000	   1.378000	 1022.000000; % NG
	2	 0.0	 0.0	 3	   0.883300	  23.160000	 837.100000; % NG
	2	 0.0	 0.0	 3	   0.000000	   0.943400	 1190.000000; % COW
	2	 0.0	 0.0	 3	   0.000000	   1.390000	 272.800000; % NG
	2	 0.0	 0.0	 3	   0.000000	   0.195200	 2223.000000; % COW
	2	 0.0	 0.0	 3	   0.007819	  16.610000	 1153.000000; % COW
	2	 0.0	 0.0	 3	   0.000000	  20.410000	 931.000000; % PEL
	2	 0.0	 0.0	 3	   0.000000	   1.060000	 1271.000000; % NG
	2	 0.0	 0.0	 3	   0.000000	   2.245000	 17320.000000; % NG
	2	 0.0	 0.0	 3	   0.013110	  23.760000	 762.400000; % NG
	2	 0.0	 0.0	 3	   0.133500	   0.000000	 1411.000000; % PEL
	2	 0.0	 0.0	 3	   0.000107	   0.770700	 8794.000000; % COW
	2	 0.0	 0.0	 3	   0.000000	   0.620700	 5781.000000; % COW
	2	 0.0	 0.0	 3	   0.321300	  26.720000	 4169.000000; % NG
	2	 0.0	 0.0	 3	   0.000000	   0.936500	 21580.000000; % COW
	2	 0.0	 0.0	 3	   0.000000	   0.207900	 1029.000000; % NG
	2	 0.0	 0.0	 3	   0.000000	   0.693200	 1066.000000; % NG
	2	 0.0	 0.0	 3	   0.000000	   4.067000	 110.400000; % NG
	2	 0.0	 0.0	 3	   0.000000	   0.223900	 26410.000000; % COW
	2	 0.0	 0.0	 3	   0.232200	  52.950000	 1494.000000; % NG
	2	 0.0	 0.0	 3	   0.000222	   0.214800	 5617.000000; % NUC
	2	 0.0	 0.0	 3	   0.153600	  62.380000	 1078.000000; % NG
	2	 0.0	 0.0	 3	   0.589700	   7.978000	 3051.000000; % NG
	2	 0.0	 0.0	 3	   0.000000	   0.176900	 1168.000000; % NG
	2	 0.0	 0.0	 3	   0.000000	   0.801900	 1338.000000; % NG
	2	 0.0	 0.0	 3	   0.177300	  74.140000	 884.100000; % NG
	2	 0.0	 0.0	 3	   0.016210	  25.220000	 3534.000000; % NG
	2	 0.0	 0.0	 3	   0.009644	  20.310000	 1184.000000; % NG
	2	 0.0	 0.0	 3	   0.000000	  20.950000	 2792.000000; % NG
	2	 0.0	 0.0	 3	   0.000000	   0.682400	 902.100000; % COW
	2	 0.0	 0.0	 3	   0.000000	   0.803400	 1169.000000; % NG
	2	 0.0	 0.0	 3	   0.000000	   1.228000	 244.400000; % NG
	2	 0.0	 0.0	 3	   0.000000	   0.479400	 2113.000000; % NG
	2	 0.0	 0.0	 3	   0.214700	  51.590000	 1591.000000; % NG
	2	 0.0	 0.0	 3	   0.000000	   2.697000	 12460.000000; % NG
	2	 0.0	 0.0	 3	   0.000000	  11.240000	 533.000000; % PEL
	2	 0.0	 0.0	 3	   0.047860	  25.810000	 4935.000000; % NG
	2	 0.0	 0.0	 3	   0.000000	   0.827900	 419.900000; % NG
	2	 0.0	 0.0	 3	   0.000000	   5.815000	 116.200000; % NG
	2	 0.0	 0.0	 3	   0.000000	   2.760000	 11760.000000; % NG
	2	 0.0	 0.0	 3	   0.163900	  71.800000	 1039.000000; % NG
	2	 0.0	 0.0	 3	   0.163900	  71.800000	 996.600000; % NG
	2	 0.0	 0.0	 3	   0.000000	   2.841000	 11320.000000; % NG
	2	 0.0	 0.0	 3	   0.193800	  63.900000	 1819.000000; % NG
	2	 0.0	 0.0	 3	   0.156800	  57.260000	 2674.000000; % NG
	2	 0.0	 0.0	 3	   0.000000	  39.160000	 2021.000000; % NG
	2	 0.0	 0.0	 3	   0.008173	   5.677000	 42460.000000; % COW
	2	 0.0	 0.0	 3	   0.000000	  21.360000	 7967.000000; % COW
	2	 0.0	 0.0	 3	   0.000000	   1.229000	 1062.000000; % NG
	2	 0.0	 0.0	 3	   0.000000	   1.244000	 1114.000000; % NG
	2	 0.0	 0.0	 3	   0.000000	   7.657000	 184.100000; % NG
	2	 0.0	 0.0	 3	   0.000000	  60.160000	 644.800000; % PEL
	2	 0.0	 0.0	 3	   0.322400	   8.046000	 150.300000; % PEL
	2	 0.0	 0.0	 3	   0.000000	   0.444600	 5801.000000; % NG
	2	 0.0	 0.0	 3	   0.000000	   0.195900	 2140.000000; % COW
	2	 0.0	 0.0	 3	   0.000000	   1.646000	 47330.000000; % NUC
	2	 0.0	 0.0	 3	   0.109300	   0.000000	 2144.000000; % NG
	2	 0.0	 0.0	 3	   0.289200	  69.970000	 837.100000; % NG
	2	 0.0	 0.0	 3	   0.000000	  24.300000	  55.290000; % PEL
	2	 0.0	 0.0	 3	   0.000000	   8.931000	 47340.000000; % COW
	2	 0.0	 0.0	 3	   0.000267	   0.232700	 6198.000000; % COW
	2	 0.0	 0.0	 3	   0.000000	  10.700000	 1756.000000; % NG
	2	 0.0	 0.0	 3	   0.000000	  16.130000	 137.800000; % NG
	2	 0.0	 0.0	 3	   0.000000	  15.950000	 148.600000; % NG
	2	 0.0	 0.0	 3	   0.000000	  10.570000	 1647.000000; % NG
	2	 0.0	 0.0	 3	   0.000000	   0.844900	 1242.000000; % COW
	2	 0.0	 0.0	 3	   0.046350	  37.850000	 2175.000000; % NG
	2	 0.0	 0.0	 3	   0.000000	   2.737000	 1390.000000; % NG
	2	 0.0	 0.0	 3	   0.047730	  37.490000	 5399.000000; % NG
	2	 0.0	 0.0	 3	   0.005131	  10.170000	 42330.000000; % COW
	2	 0.0	 0.0	 3	   0.155000	  65.760000	 1609.000000; % NG
	2	 0.0	 0.0	 3	   0.000000	   0.471800	 47940.000000; % COW
	2	 0.0	 0.0	 3	   0.000000	  47.670000	 560.000000; % COW
	2	 0.0	 0.0	 3	   0.030960	  25.670000	 675.900000; % NG
	2	 0.0	 0.0	 3	   0.000000	   2.600000	 508.000000; % NG
	2	 0.0	 0.0	 3	   0.000000	  13.250000	  54.730000; % PEL
	2	 0.0	 0.0	 3	   0.123100	   0.000000	 947.700000; % COW
	2	 0.0	 0.0	 3	   0.673200	  26.280000	 -50.970000; % NG
	2	 0.0	 0.0	 3	   0.000000	   9.711000	 2485.000000; % PEL
	2	 0.0	 0.0	 3	   0.932500	  17.880000	 999.700000; % NG
	2	 0.0	 0.0	 3	   0.000000	   9.991000	 3952.000000; % NG
	2	 0.0	 0.0	 3	   0.000000	   3.174000	 280.100000; % NG
	2	 0.0	 0.0	 3	   0.025850	  23.520000	 637.800000; % COW
	2	 0.0	 0.0	 3	   0.000000	  13.940000	 272.600000; % NG
	2	 0.0	 0.0	 3	   0.000000	  31.720000	 769.500000; % PEL
	2	 0.0	 0.0	 3	   0.000000	  32.640000	 2063.000000; % NG
...
];

%% branch data
%	fbus	tbus	r	x	b	rateA	rateB	rateC	ratio	angle	status	angmin	angmax
mpc.branch = [
	3	 17	 0.0062	 0.0245	 0.0	 260.0	 312.0	 390.0	 0.0	 0.0	 1	 -30.0	 30.0;
	3	 25	 0.0044	 0.0165	 0.0	 260.0	 312.0	 390.0	 0.0	 0.0	 1	 -30.0	 30.0;
	6	 17	 0.0163	 0.0655	 0.0	 260.0	 312.0	 390.0	 0.0	 0.0	 1	 -30.0	 30.0;
	9	 15	 0.0257	 0.0526	 0.0	 62.0	 81.0	 81.0	 0.0	 0.0	 1	 -30.0	 30.0;
	9	 18	 0.0063	 0.0149	 0.0	 74.0	 88.0	 88.0	 0.0	 0.0	 1	 -30.0	 30.0;
	10	 12	 0.03	 0.0878	 0.0	 62.0	 81.0	 81.0	 0.0	 0.0	 1	 -30.0	 30.0;
	10	 16	 0.03	 0.12929	 0.0	 57.0	 64.0	 64.0	 0.0	 0.0	 1	 -30.0	 30.0;
	11	 23	 0.03	 0.14678	 0.0	 260.0	 312.0	 390.0	 0.0	 0.0	 1	 -30.0	 30.0;
	11	 25	 0.01389	 0.0333	 0.0	 260.0	 312.0	 390.0	 0.0	 0.0	 1	 -30.0	 30.0;
	12	 25	 0.03	 0.1182	 0.0	 36.0	 54.0	 54.0	 0.0	 0.0	 1	 -30.0	 30.0;
	13	 14	 0.0106	 0.0205	 0.0	 62.0	 81.0	 81.0	 0.0	 0.0	 1	 -30.0	 30.0;
	13	 16	 0.0269	 0.0519	 0.0	 62.0	 81.0	 81.0	 0.0	 0.0	 1	 -30.0	 30.0;
	16	 18	 0.03	 0.0794	 0.0	 74.0	 88.0	 88.0	 0.0	 0.0	 1	 -30.0	 30.0;
	16	 991	 0.0001	 0.01	 0.0	 83.7	 98.6	 125.55	 0.0	 0.0	 1	 -30.0	 30.0;
	18	 26	 0.03	 0.0826	 0.0	 43.0	 47.0	 47.0	 0.0	 0.0	 1	 -30.0	 30.0;
	19	 26	 0.03	 0.0751	 0.0	 74.0	 95.0	 95.0	 0.0	 0.0	 1	 -30.0	 30.0;
	23	 4593	 0.0001	 0.01	 0.0	 83.7	 98.6	 125.55	 0.0	 0.0	 1	 -30.0	 30.0;
	28	 58	 0.0013	 0.0099	 0.02132	 260.0	 312.0	 390.0	 0.0	 0.0	 1	 -30.0	 30.0;
	30	 34	 0.03	 0.15	 0.0	 260.0	 312.0	 390.0	 0.0	 0.0	 1	 -30.0	 30.0;
	30	 37	 0.03	 0.15	 0.0	 260.0	 312.0	 390.0	 0.0	 0.0	 1	 -30.0	 30.0;
	30	 55	 0.03	 0.15	 0.0	 260.0	 312.0	 390.0	 0.0	 0.0	 1	 -30.0	 30.0;
	30	 56	 0.03	 0.15	 0.0	 260.0	 312.0	 390.0	 0.0	 0.0	 1	 -30.0	 30.0;
	30	 60	 0.03	 0.15	 0.0	 260.0	 312.0	 390.0	 0.0	 0.0	 1	 -30.0	 30.0;
	30	 71	 0.03	 0.15	 0.0	 260.0	 312.0	 390.0	 0.0	 0.0	 1	 -30.0	 30.0;
	31	 36	 0.03	 0.15	 0.0	 260.0	 312.0	 390.0	 0.0	 0.0	 1	 -30.0	 30.0;
	31	 42	 0.0111	 0.15	 0.0	 260.0	 312.0	 390.0	 0.0	 0.0	 1	 -30.0	 30.0;
	31	 60	 0.03	 0.15	 0.0	 260.0	 312.0	 390.0	 0.0	 0.0	 1	 -30.0	 30.0;
	32	 36	 0.03	 0.15	 0.0	 260.0	 312.0	 390.0	 0.0	 0.0	 1	 -30.0	 30.0;
	32	 74	 0.03	 0.15	 0.0	 260.0	 312.0	 390.0	 0.0	 0.0	 1	 -30.0	 30.0;
	33	 43	 0.0042	 0.0253	 0.0485	 260.0	 312.0	 390.0	 0.0	 0.0	 1	 -30.0	 30.0;
	33	 81	 0.0046	 0.0315	 0.059	 260.0	 312.0	 390.0	 0.0	 0.0	 1	 -30.0	 30.0;
	34	 55	 -0.0656	 0.15	 0.0	 260.0	 312.0	 390.0	 0.0	 0.0	 1	 -30.0	 30.0;
	34	 60	 0.03	 0.15	 0.0	 260.0	 312.0	 390.0	 0.0	 0.0	 1	 -30.0	 30.0;
	34	 71	 0.0162	 0.15	 0.0	 260.0	 312.0	 390.0	 0.0	 0.0	 1	 -30.0	 30.0;
	35	 37	 -0.0598	 0.15	 0.0	 260.0	 312.0	 390.0	 0.0	 0.0	 1	 -30.0	 30.0;
	35	 56	 -0.0578	 0.15	 0.0	 260.0	 312.0	 390.0	 0.0	 0.0	 1	 -30.0	 30.0;
	35	 61	 0.01979	 0.0496	 0.0	 260.0	 312.0	 390.0	 0.0	 0.0	 1	 -30.0	 30.0;
	36	 37	 0.03	 0.15	 0.0	 260.0	 312.0	 390.0	 0.0	 0.0	 1	 -30.0	 30.0;
	36	 42	 0.03	 0.15	 0.0	 260.0	 312.0	 390.0	 0.0	 0.0	 1	 -30.0	 30.0;
	36	 56	 0.03	 0.15	 0.0	 260.0	 312.0	 390.0	 0.0	 0.0	 1	 -30.0	 30.0;
	36	 60	 0.03	 0.15	 0.0	 260.0	 312.0	 390.0	 0.0	 0.0	 1	 -30.0	 30.0;
	36	 61	 0.03	 0.15	 0.0	 260.0	 312.0	 390.0	 0.0	 0.0	 1	 -30.0	 30.0;
	36	 74	 0.03	 0.15	 0.0	 260.0	 312.0	 390.0	 0.0	 0.0	 1	 -30.0	 30.0;
	37	 55	 0.03	 0.15	 0.0	 260.0	 312.0	 390.0	 0.0	 0.0	 1	 -30.0	 30.0;
	37	 56	 0.0009	 0.0008	 0.0	 260.0	 312.0	 390.0	 0.0	 0.0	 1	 -30.0	 30.0;
	37	 60	 0.03	 0.15	 0.0	 260.0	 312.0	 390.0	 0.0	 0.0	 1	 -30.0	 30.0;
	37	 61	 0.01526	 0.02962	 0.0	 260.0	 312.0	 390.0	 0.0	 0.0	 1	 -30.0	 30.0;
	38	 74	 0.03	 0.15	 0.0	 260.0	 312.0	 390.0	 0.0	 0.0	 1	 -30.0	 30.0;
	38	 76	 0.03	 0.15	 0.0	 260.0	 312.0	 390.0	 0.0	 0.0	 1	 -30.0	 30.0;
	39	 45	 0.0136	 0.0903	 0.1732	 260.0	 312.0	 390.0	 0.0	 0.0	 1	 -30.0	 30.0;
	39	 183	 0.0001	 0.01	 0.0	 133.13	 159.75	 199.69	 0.0	 0.0	 1	 -30.0	 30.0;
	40	 49	 0.0154	 0.0991	 0.17817	 546.73	 656.08	 820.1	 0.0	 0.0	 1	 -30.0	 30.0;
	40	 58	 0.0122	 0.0943	 0.18743	 260.0	 312.0	 390.0	 0.0	 0.0	 1	 -30.0	 30.0;
	40	 66	 0.0065	 0.0503	 0.10008	 260.0	 312.0	 390.0	 0.0	 0.0	 1	 -30.0	 30.0;
	40	 67	 0.0022	 0.0262	 0.05566	 675.98	 811.18	 1013.98	 0.0	 0.0	 1	 -30.0	 30.0;
	40	 67	 0.0027	 0.0268	 0.05696	 673.14	 807.77	 1009.71	 0.0	 0.0	 1	 -30.0	 30.0;
	41	 1978	 0.0001	 0.01	 0.0	 351.0	 386.1	 421.2	 0.0	 0.0	 1	 -30.0	 30.0;
	42	 60	 0.03	 0.15	 0.0	 260.0	 312.0	 390.0	 0.0	 0.0	 1	 -30.0	 30.0;
	43	 736	 0.0001	 0.01	 0.0	 204.0	 224.4	 244.8	 0.0	 0.0	 1	 -30.0	 30.0;
	44	 70	 0.0123	 0.0822	 0.15137	 260.0	 312.0	 390.0	 0.0	 0.0	 1	 -30.0	 30.0;
	44	 79	 0.0057	 0.0382	 0.07047	 260.0	 312.0	 390.0	 0.0	 0.0	 1	 -30.0	 30.0;
	45	 62	 0.00605	 0.03642	 0.06956	 260.0	 312.0	 390.0	 0.0	 0.0	 1	 -30.0	 30.0;
	45	 79	 0.00203	 0.01191	 0.02399	 260.0	 312.0	 390.0	 0.0	 0.0	 1	 -30.0	 30.0;
	46	 80	 0.00116	 0.0314	 2.6586	 674.53	 809.44	 1011.8	 0.0	 0.0	 1	 -30.0	 30.0;
	49	 72	 0.0106	 0.0684	 0.13505	 260.0	 312.0	 390.0	 0.0	 0.0	 1	 -30.0	 30.0;
	49	 75	 0.0112	 0.0727	 0.14343	 260.0	 312.0	 390.0	 0.0	 0.0	 1	 -30.0	 30.0;
	49	 77	 0.00197	 0.01283	 0.02477	 260.0	 312.0	 390.0	 0.0	 0.0	 1	 -30.0	 30.0;
	50	 2001	 0.0001	 0.01	 0.0	 390.75	 468.9	 586.12	 0.0	 0.0	 1	 -30.0	 30.0;
	51	 63	 0.0045	 0.0221	 0.00642	 260.0	 312.0	 390.0	 0.0	 0.0	 1	 -30.0	 30.0;
	53	 72	 0.0034	 0.0221	 0.04362	 260.0	 312.0	 390.0	 0.0	 0.0	 1	 -30.0	 30.0;
	54	 76	 0.03	 0.15	 0.0	 260.0	 312.0	 390.0	 0.0	 0.0	 1	 -30.0	 30.0;
	54	 1587	 0.0001	 0.01	 0.0	 83.7	 98.6	 125.55	 0.0	 0.0	 1	 -30.0	 30.0;
	55	 56	 0.03	 0.15	 0.0	 260.0	 312.0	 390.0	 0.0	 0.0	 1	 -30.0	 30.0;
	55	 60	 0.03	 0.15	 0.0	 260.0	 312.0	 390.0	 0.0	 0.0	 1	 -30.0	 30.0;
	55	 71	 -0.0656	 0.15	 0.0	 260.0	 312.0	 390.0	 0.0	 0.0	 1	 -30.0	 30.0;
	56	 61	 0.01598	 0.03011	 0.0	 260.0	 312.0	 390.0	 0.0	 0.0	 1	 -30.0	 30.0;
	57	 59	 0.01265	 0.06079	 0.0289	 260.0	 312.0	 390.0	 0.0	 0.0	 1	 -30.0	 30.0;
	57	 68	 0.0239	 0.1186	 0.06562	 260.0	 312.0	 390.0	 0.0	 0.0	 1	 -30.0	 30.0;
	58	 70	 0.0001	 0.001	 0.00208	 260.0	 312.0	 390.0	 0.0	 0.0	 1	 -30.0	 30.0;
	60	 71	 0.03	 0.15	 0.0	 260.0	 312.0	 390.0	 0.0	 0.0	 1	 -30.0	 30.0;
	62	 69	 0.00421	 0.0253	 0.04874	 260.0	 312.0	 390.0	 0.0	 0.0	 1	 -30.0	 30.0;
	64	 65	 0.0044	 0.034	 0.06751	 260.0	 312.0	 390.0	 0.0	 0.0	 1	 -30.0	 30.0;
	64	 66	 0.0049	 0.0375	 0.07449	 416.0	 499.2	 624.01	 0.0	 0.0	 1	 -30.0	 30.0;
	65	 67	 0.0048	 0.0569	 0.12161	 260.0	 312.0	 390.0	 0.0	 0.0	 1	 -30.0	 30.0;
	66	 70	 0.0091	 0.0698	 0.13869	 260.0	 312.0	 390.0	 0.0	 0.0	 1	 -30.0	 30.0;
	69	 731	 0.0001	 0.01	 0.0	 161.0	 177.1	 193.2	 0.0	 0.0	 1	 -30.0	 30.0;
	73	 1986	 0.0001	 0.01	 0.0	 238.0	 261.8	 285.6	 0.0	 0.0	 1	 -30.0	 30.0;
	77	 81	 0.01244	 0.081	 0.1561	 260.0	 312.0	 390.0	 0.0	 0.0	 1	 -30.0	 30.0;
	78	 2013	 0.0001	 0.01	 0.0	 128.1	 153.72	 192.15	 0.0	 0.0	 1	 -30.0	 30.0;
	83	 182	 0.00183	 0.00937	 0.00122	 187.0	 190.0	 190.0	 0.0	 0.0	 1	 -30.0	 30.0;
	83	 394	 0.00022	 0.00113	 0.00012	 141.0	 153.0	 153.0	 0.0	 0.0	 1	 -30.0	 30.0;
	85	 314	 0.01166	 0.04179	 0.00542	 128.0	 128.0	 128.0	 0.0	 0.0	 1	 -30.0	 30.0;
	85	 778	 0.00022	 0.001	 0.0	 128.0	 128.0	 128.0	 0.0	 0.0	 1	 -30.0	 30.0;
	90	 428	 0.00763	 0.03119	 0.00742	 359.0	 359.0	 359.0	 0.0	 0.0	 1	 -30.0	 30.0;
	90	 1214	 0.0001	 0.01	 0.0	 128.57	 154.28	 192.85	 0.0	 0.0	 1	 -30.0	 30.0;
	91	 674	 0.00046	 0.00369	 0.01465	 782.0	 782.0	 782.0	 0.0	 0.0	 1	 -30.0	 30.0;
	91	 759	 0.00108	 0.00864	 0.0032	 782.0	 782.0	 782.0	 0.0	 0.0	 1	 -30.0	 30.0;
	92	 404	 0.00131	 0.00851	 0.00107	 241.0	 241.0	 241.0	 0.0	 0.0	 1	 -30.0	 30.0;
	94	 753	 0.00056	 0.00423	 0.01581	 1080.0	 1080.0	 1080.0	 0.0	 0.0	 1	 -30.0	 30.0;
	96	 642	 0.0033	 0.01223	 0.00197	 141.0	 153.0	 153.0	 0.0	 0.0	 1	 -30.0	 30.0;
	97	 582	 0.00036	 0.00336	 0.013	 940.0	 1020.0	 1020.0	 0.0	 0.0	 1	 -30.0	 30.0;
	97	 622	 0.00065	 0.00605	 0.02335	 1007.0	 1107.7	 1208.4	 0.0	 0.0	 1	 -30.0	 30.0;
	98	 667	 0.0001	 0.001	 0.0	 564.0	 607.0	 607.0	 0.0	 0.0	 1	 -30.0	 30.0;
	101	 375	 0.00673	 0.03407	 0.0048	 190.0	 190.0	 190.0	 0.0	 0.0	 1	 -30.0	 30.0;
	101	 437	 0.00202	 0.01043	 0.00146	 193.0	 193.0	 193.0	 0.0	 0.0	 1	 -30.0	 30.0;
	107	 569	 0.00136	 0.01038	 0.00163	 259.0	 259.0	 259.0	 0.0	 0.0	 1	 -30.0	 30.0;
	107	 607	 0.00143	 0.01098	 0.00172	 259.0	 259.0	 259.0	 0.0	 0.0	 1	 -30.0	 30.0;
	109	 353	 0.00049	 0.00374	 0.01349	 1080.0	 1080.0	 1080.0	 0.0	 0.0	 1	 -30.0	 30.0;
	109	 724	 0.00025	 0.00188	 0.00684	 1080.0	 1080.0	 1080.0	 0.0	 0.0	 1	 -30.0	 30.0;
	110	 252	 0.00159	 0.01593	 0.00238	 264.0	 264.0	 264.0	 0.0	 0.0	 1	 -30.0	 30.0;
	110	 1151	 0.0001	 0.01	 0.0	 167.93	 201.52	 251.9	 0.0	 0.0	 1	 -30.0	 30.0;
	111	 219	 0.00021	 0.00474	 0.45346	 3603.0	 3603.0	 3603.0	 0.0	 0.0	 1	 -30.0	 30.0;
	111	 399	 0.00051	 0.01136	 1.0862	 2666.0	 2702.0	 2702.0	 0.0	 0.0	 1	 -30.0	 30.0;
	115	 314	 0.00442	 0.02193	 0.00308	 207.0	 207.0	 207.0	 0.0	 0.0	 1	 -30.0	 30.0;
	115	 573	 0.00356	 0.02198	 0.00308	 207.0	 207.0	 207.0	 0.0	 0.0	 1	 -30.0	 30.0;
	118	 466	 0.00045	 0.0093	 0.702	 3164.0	 3164.0	 3164.0	 0.0	 0.0	 1	 -30.0	 30.0;
	118	 512	 0.0002	 0.0042	 0.31241	 2702.0	 2702.0	 2702.0	 0.0	 0.0	 1	 -30.0	 30.0;
	118	 799	 0.00037	 0.00778	 0.58809	 2702.0	 2702.0	 2702.0	 0.0	 0.0	 1	 -30.0	 30.0;
	119	 503	 0.00137	 0.01051	 0.00163	 239.0	 249.0	 249.0	 0.0	 0.0	 1	 -30.0	 30.0;
	119	 569	 0.00227	 0.01734	 0.00272	 259.0	 259.0	 259.0	 0.0	 0.0	 1	 -30.0	 30.0;
	121	 331	 0.00084	 0.00773	 0.02751	 663.0	 663.0	 663.0	 0.0	 0.0	 1	 -30.0	 30.0;
	121	 630	 0.0001	 0.001	 0.0	 260.0	 312.0	 390.0	 0.0	 0.0	 1	 -30.0	 30.0;
	124	 539	 0.00078	 0.0064	 0.01355	 510.0	 510.0	 510.0	 0.0	 0.0	 1	 -30.0	 30.0;
	124	 542	 0.0004	 0.0033	 0.00684	 517.0	 517.0	 517.0	 0.0	 0.0	 1	 -30.0	 30.0;
	125	 313	 0.00083	 0.00976	 0.00146	 364.0	 364.0	 364.0	 0.0	 0.0	 1	 -30.0	 30.0;
	125	 456	 0.00272	 0.04203	 0.00642	 414.0	 414.0	 414.0	 0.0	 0.0	 1	 -30.0	 30.0;
	125	 518	 0.00413	 0.02785	 0.00407	 325.0	 325.0	 325.0	 0.0	 0.0	 1	 -30.0	 30.0;
	125	 695	 0.00088	 0.0135	 0.00206	 397.0	 414.0	 414.0	 0.0	 0.0	 1	 -30.0	 30.0;
	126	 206	 0.00944	 0.02664	 0.00322	 179.0	 179.0	 179.0	 0.0	 0.0	 1	 -30.0	 30.0;
	129	 653	 0.00374	 0.01116	 0.00122	 128.0	 128.0	 128.0	 0.0	 0.0	 1	 -30.0	 30.0;
	129	 1223	 0.0001	 0.01	 0.0	 83.7	 98.6	 125.55	 0.0	 0.0	 1	 -30.0	 30.0;
	130	 323	 0.0002	 0.0054	 0.41	 3450.0	 3603.0	 3603.0	 0.0	 0.0	 1	 -30.0	 30.0;
	130	 376	 0.00012	 0.00276	 0.25	 2702.0	 2702.0	 2702.0	 0.0	 0.0	 1	 -30.0	 30.0;
	130	 880	 0.0001	 0.01	 0.0	 537.81	 645.38	 806.72	 0.0	 0.0	 1	 -30.0	 30.0;
	132	 793	 0.00057	 0.00452	 0.017	 782.0	 782.0	 782.0	 0.0	 0.0	 1	 -30.0	 30.0;
	132	 798	 0.00084	 0.00676	 0.02499	 782.0	 782.0	 782.0	 0.0	 0.0	 1	 -30.0	 30.0;
	134	 182	 0.0065	 0.03322	 0.004	 141.0	 153.0	 153.0	 0.0	 0.0	 1	 -30.0	 30.0;
	134	 361	 0.00642	 0.03305	 0.00433	 141.0	 153.0	 153.0	 0.0	 0.0	 1	 -30.0	 30.0;
	136	 285	 0.00085	 0.00649	 0.85367	 632.0	 632.0	 632.0	 0.0	 0.0	 1	 -30.0	 30.0;
	141	 401	 0.00032	 0.00273	 0.02142	 829.0	 829.0	 829.0	 0.0	 0.0	 1	 -30.0	 30.0;
	141	 441	 0.00043	 0.00361	 0.02789	 940.0	 1020.0	 1020.0	 0.0	 0.0	 1	 -30.0	 30.0;
	142	 268	 0.00241	 0.01935	 0.07159	 782.0	 782.0	 782.0	 0.0	 0.0	 1	 -30.0	 30.0;
	142	 674	 0.0013	 0.0104	 0.03853	 782.0	 782.0	 782.0	 0.0	 0.0	 1	 -30.0	 30.0;
	146	 466	 0.0004	 0.01017	 0.79747	 2272.0	 2551.0	 2551.0	 0.0	 0.0	 1	 -30.0	 30.0;
	146	 1160	 0.0001	 0.01	 0.0	 438.0	 481.8	 525.6	 0.0	 0.0	 1	 -30.0	 30.0;
	147	 302	 0.00025	 0.0019	 0.00732	 572.0	 572.0	 572.0	 0.0	 0.0	 1	 -30.0	 30.0;
	147	 741	 0.0001	 0.001	 0.16846	 572.0	 572.0	 572.0	 0.0	 0.0	 1	 -30.0	 30.0;
	147	 741	 0.0001	 0.001	 0.16846	 572.0	 572.0	 572.0	 0.0	 0.0	 1	 -30.0	 30.0;
	148	 431	 0.00038	 0.00457	 0.01257	 782.0	 782.0	 782.0	 0.0	 0.0	 1	 -30.0	 30.0;
	148	 788	 0.00103	 0.01035	 0.0323	 782.0	 782.0	 782.0	 0.0	 0.0	 1	 -30.0	 30.0;
	150	 172	 0.0054	 0.01484	 0.0019	 128.0	 128.0	 128.0	 0.0	 0.0	 1	 -30.0	 30.0;
	150	 362	 0.00792	 0.0498	 0.01075	 282.0	 306.0	 306.0	 0.0	 0.0	 1	 -30.0	 30.0;
	150	 563	 0.00538	 0.01478	 0.00189	 128.0	 128.0	 128.0	 0.0	 0.0	 1	 -30.0	 30.0;
	151	 269	 0.00224	 0.01661	 0.06507	 1080.0	 1080.0	 1080.0	 0.0	 0.0	 1	 -30.0	 30.0;
	151	 382	 0.00127	 0.00944	 0.03667	 940.0	 1020.0	 1020.0	 0.0	 0.0	 1	 -30.0	 30.0;
	152	 594	 0.00167	 0.01268	 0.04823	 829.0	 829.0	 829.0	 0.0	 0.0	 1	 -30.0	 30.0;
	152	 717	 0.00156	 0.01233	 0.04704	 782.0	 782.0	 782.0	 0.0	 0.0	 1	 -30.0	 30.0;
	155	 444	 0.00092	 0.00725	 0.0278	 782.0	 782.0	 782.0	 0.0	 0.0	 1	 -30.0	 30.0;
	155	 455	 0.00106	 0.00848	 0.0312	 782.0	 782.0	 782.0	 0.0	 0.0	 1	 -30.0	 30.0;
	156	 165	 0.00036	 0.00881	 0.6758	 2702.0	 2702.0	 2702.0	 0.0	 0.0	 1	 -30.0	 30.0;
	156	 219	 0.00059	 0.01322	 1.20351	 2806.0	 3014.0	 3014.0	 0.0	 0.0	 1	 -30.0	 30.0;
	156	 772	 0.00013	 0.00315	 0.23877	 2702.0	 2702.0	 2702.0	 0.0	 0.0	 1	 -30.0	 30.0;
	164	 172	 0.0111	 0.03048	 0.00389	 128.0	 128.0	 128.0	 0.0	 0.0	 1	 -30.0	 30.0;
	164	 214	 0.01253	 0.03443	 0.0044	 128.0	 128.0	 128.0	 0.0	 0.0	 1	 -30.0	 30.0;
	165	 565	 0.0001	 0.0027	 0.19958	 2702.0	 2702.0	 2702.0	 0.0	 0.0	 1	 -30.0	 30.0;
	165	 648	 0.0004	 0.0106	 0.798	 2202.0	 2202.0	 2202.0	 0.0	 0.0	 1	 -30.0	 30.0;
	166	 265	 0.00017	 0.00362	 0.2746	 3164.0	 3164.0	 3164.0	 0.0	 0.0	 1	 -30.0	 30.0;
	166	 323	 0.00025	 0.00514	 0.38934	 2702.0	 2702.0	 2702.0	 0.0	 0.0	 1	 -30.0	 30.0;
	166	 525	 0.0001	 0.001	 0.0	 260.0	 312.0	 390.0	 0.0	 0.0	 1	 -30.0	 30.0;
	167	 320	 0.00158	 0.01464	 0.32072	 805.0	 805.0	 805.0	 0.0	 0.0	 1	 -30.0	 30.0;
	167	 768	 0.0001	 0.001	 0.0	 867.0	 867.0	 867.0	 0.0	 0.0	 1	 -30.0	 30.0;
	168	 698	 0.00159	 0.01262	 0.04733	 782.0	 782.0	 782.0	 0.0	 0.0	 1	 -30.0	 30.0;
	168	 791	 0.00226	 0.01799	 0.06744	 617.0	 617.0	 617.0	 0.0	 0.0	 1	 -30.0	 30.0;
	170	 680	 0.00035	 0.00265	 0.00989	 1080.0	 1080.0	 1080.0	 0.0	 0.0	 1	 -30.0	 30.0;
	173	 542	 0.00043	 0.00371	 0.00787	 517.0	 517.0	 517.0	 0.0	 0.0	 1	 -30.0	 30.0;
	173	 673	 0.00265	 0.01932	 0.05717	 510.0	 510.0	 510.0	 0.0	 0.0	 1	 -30.0	 30.0;
	175	 622	 0.00169	 0.01564	 0.06034	 829.0	 829.0	 829.0	 0.0	 0.0	 1	 -30.0	 30.0;
	175	 753	 0.0015	 0.0138	 0.05309	 940.0	 1020.0	 1020.0	 0.0	 0.0	 1	 -30.0	 30.0;
	177	 400	 0.00171	 0.01408	 0.03082	 729.0	 729.0	 729.0	 0.0	 0.0	 1	 -30.0	 30.0;
	177	 674	 0.00038	 0.00308	 0.01123	 782.0	 782.0	 782.0	 0.0	 0.0	 1	 -30.0	 30.0;
	177	 674	 0.0005	 0.00362	 0.01257	 1080.0	 1080.0	 1080.0	 0.0	 0.0	 1	 -30.0	 30.0;
	181	 285	 0.00151	 0.01216	 0.03387	 510.0	 510.0	 510.0	 0.0	 0.0	 1	 -30.0	 30.0;
	181	 689	 0.00013	 0.00108	 0.00232	 510.0	 510.0	 510.0	 0.0	 0.0	 1	 -30.0	 30.0;
	182	 188	 0.00897	 0.03961	 0.00527	 224.0	 224.0	 224.0	 0.0	 0.0	 1	 -30.0	 30.0;
	182	 319	 0.00642	 0.02507	 0.00318	 136.0	 136.0	 136.0	 0.0	 0.0	 1	 -30.0	 30.0;
	182	 335	 0.00344	 0.02737	 0.0048	 187.0	 197.0	 197.0	 0.0	 0.0	 1	 -30.0	 30.0;
	182	 663	 0.00748	 0.0385	 0.00517	 190.0	 190.0	 190.0	 0.0	 0.0	 1	 -30.0	 30.0;
...